1



                                 *********************************************

                                    NUMERICAL ELECTROMAGNETICS CODE (NEC-2D)

                                 *********************************************




                                     - - - - COMMENTS - - - -


                          No comments specified                                                      
                                                                                                     




                                 - - - STRUCTURE SPECIFICATION - - -

                                     COORDINATES MUST BE INPUT IN
                                     METERS OR BE SCALED TO METERS
                                     BEFORE STRUCTURE INPUT IS ENDED


  WIRE                                                                               NO. OF    FIRST  LAST     TAG
  NO.        X1         Y1         Z1          X2         Y2         Z2      RADIUS   SEG.     SEG.   SEG.     NO.
     1    0.08500    0.00000    0.21200     0.08400    0.01400    0.21200    0.00213      1        1     1       1
     2    0.08400    0.01400    0.21200     0.08000    0.02900    0.21200    0.00213      1        2     2       1
     3    0.08000    0.02900    0.21200     0.07400    0.04200    0.21200    0.00213      1        3     3       1
     4    0.07400    0.04200    0.21200     0.06600    0.05400    0.21200    0.00213      1        4     4       1
     5    0.06600    0.05400    0.21200     0.05500    0.06400    0.21200    0.00213      1        5     5       1
     6    0.05500    0.06400    0.21200     0.04400    0.07300    0.21200    0.00213      1        6     6       1
     7    0.04400    0.07300    0.21200     0.03100    0.07900    0.21200    0.00213      1        7     7       1
     8    0.03100    0.07900    0.21200     0.01700    0.08300    0.21200    0.00213      1        8     8       1
     9    0.01700    0.08300    0.21200     0.00200    0.08500    0.21200    0.00213      1        9     9       1
    10    0.00200    0.08500    0.21200    -0.01200    0.08400    0.21200    0.00213      1       10    10       1
    11   -0.01200    0.08400    0.21200    -0.02600    0.08100    0.21200    0.00213      1       11    11       1
    12   -0.02600    0.08100    0.21200    -0.04000    0.07500    0.21200    0.00213      1       12    12       1
    13   -0.04000    0.07500    0.21200    -0.05200    0.06700    0.21200    0.00213      1       13    13       1
    14   -0.05200    0.06700    0.21200    -0.06300    0.05700    0.21200    0.00213      1       14    14       1
    15   -0.06300    0.05700    0.21200    -0.07200    0.04600    0.21200    0.00213      1       15    15       1
    16   -0.07200    0.04600    0.21200    -0.07800    0.03300    0.21200    0.00213      1       16    16       1
    17   -0.07800    0.03300    0.21200    -0.08300    0.01900    0.21200    0.00213      1       17    17       1
    18   -0.08300    0.01900    0.21200    -0.08500    0.00400    0.21200    0.00213      1       18    18       1
    19   -0.08500    0.00400    0.21200    -0.08400   -0.01000    0.21200    0.00213      1       19    19       1
    20   -0.08400   -0.01000    0.21200    -0.08100   -0.02400    0.21200    0.00213      1       20    20       1
    21   -0.08100   -0.02400    0.21200    -0.07600   -0.03800    0.21200    0.00213      1       21    21       1
    22   -0.07600   -0.03800    0.21200    -0.06800   -0.05000    0.21200    0.00213      1       22    22       1
    23   -0.06800   -0.05000    0.21200    -0.05900   -0.06100    0.21200    0.00213      1       23    23       1
    24   -0.05900   -0.06100    0.21200    -0.04700   -0.07000    0.21200    0.00213      1       24    24       1
    25   -0.04700   -0.07000    0.21200    -0.03500   -0.07700    0.21200    0.00213      1       25    25       1
    26   -0.03500   -0.07700    0.21200    -0.02100   -0.08200    0.21200    0.00213      1       26    26       1
    27   -0.02100   -0.08200    0.21200    -0.00700   -0.08500    0.21200    0.00213      1       27    27       1
    28   -0.00700   -0.08500    0.21200     0.00800   -0.08400    0.21200    0.00213      1       28    28       1
    29    0.00800   -0.08400    0.21200     0.02200   -0.08200    0.21200    0.00213      1       29    29       1
    30    0.02200   -0.08200    0.21200     0.03600   -0.07700    0.21200    0.00213      1       30    30       1
    31    0.03600   -0.07700    0.21200     0.04800   -0.07000    0.21200    0.00213      1       31    31       1
    32    0.04800   -0.07000    0.21200     0.06000   -0.06000    0.21200    0.00213      1       32    32       1
    33    0.06000   -0.06000    0.21200     0.06900   -0.04900    0.21200    0.00213      1       33    33       1
    34    0.06900   -0.04900    0.21200     0.07600   -0.03700    0.21200    0.00213      1       34    34       1
    35    0.07600   -0.03700    0.21200     0.08200   -0.02300    0.21200    0.00213      1       35    35       1
    36    0.08200   -0.02300    0.21200     0.08400   -0.00900    0.21200    0.00213      1       36    36     999
    37    0.08500    0.00000    0.00000     0.08400    0.01400    0.00000    0.00213      1       37    37       2
    38    0.08400    0.01400    0.00000     0.08000    0.02900    0.00000    0.00213      1       38    38       2
    39    0.08000    0.02900    0.00000     0.07400    0.04200    0.00000    0.00213      1       39    39       2
    40    0.07400    0.04200    0.00000     0.06600    0.05400    0.00000    0.00213      1       40    40       2
    41    0.06600    0.05400    0.00000     0.05500    0.06400    0.00000    0.00213      1       41    41       2
    42    0.05500    0.06400    0.00000     0.04400    0.07300    0.00000    0.00213      1       42    42       2
    43    0.04400    0.07300    0.00000     0.03100    0.07900    0.00000    0.00213      1       43    43       2
    44    0.03100    0.07900    0.00000     0.01700    0.08300    0.00000    0.00213      1       44    44       2
    45    0.01700    0.08300    0.00000     0.00200    0.08500    0.00000    0.00213      1       45    45       2
    46    0.00200    0.08500    0.00000    -0.01200    0.08400    0.00000    0.00213      1       46    46       2
    47   -0.01200    0.08400    0.00000    -0.02600    0.08100    0.00000    0.00213      1       47    47       2
    48   -0.02600    0.08100    0.00000    -0.04000    0.07500    0.00000    0.00213      1       48    48       2
    49   -0.04000    0.07500    0.00000    -0.05200    0.06700    0.00000    0.00213      1       49    49       2
    50   -0.05200    0.06700    0.00000    -0.06300    0.05700    0.00000    0.00213      1       50    50       2
    51   -0.06300    0.05700    0.00000    -0.07200    0.04600    0.00000    0.00213      1       51    51       2
    52   -0.07200    0.04600    0.00000    -0.07800    0.03300    0.00000    0.00213      1       52    52       2
    53   -0.07800    0.03300    0.00000    -0.08300    0.01900    0.00000    0.00213      1       53    53       2
    54   -0.08300    0.01900    0.00000    -0.08500    0.00400    0.00000    0.00213      1       54    54       2
    55   -0.08500    0.00400    0.00000    -0.08400   -0.01000    0.00000    0.00213      1       55    55       2
    56   -0.08400   -0.01000    0.00000    -0.08100   -0.02400    0.00000    0.00213      1       56    56       2
    57   -0.08100   -0.02400    0.00000    -0.07600   -0.03800    0.00000    0.00213      1       57    57       2
    58   -0.07600   -0.03800    0.00000    -0.06800   -0.05000    0.00000    0.00213      1       58    58       2
    59   -0.06800   -0.05000    0.00000    -0.05900   -0.06100    0.00000    0.00213      1       59    59       2
    60   -0.05900   -0.06100    0.00000    -0.04700   -0.07000    0.00000    0.00213      1       60    60       2
    61   -0.04700   -0.07000    0.00000    -0.03500   -0.07700    0.00000    0.00213      1       61    61       2
    62   -0.03500   -0.07700    0.00000    -0.02100   -0.08200    0.00000    0.00213      1       62    62       2
    63   -0.02100   -0.08200    0.00000    -0.00700   -0.08500    0.00000    0.00213      1       63    63       2
    64   -0.00700   -0.08500    0.00000     0.00800   -0.08400    0.00000    0.00213      1       64    64       2
    65    0.00800   -0.08400    0.00000     0.02200   -0.08200    0.00000    0.00213      1       65    65       2
    66    0.02200   -0.08200    0.00000     0.03600   -0.07700    0.00000    0.00213      1       66    66       2
    67    0.03600   -0.07700    0.00000     0.04800   -0.07000    0.00000    0.00213      1       67    67       2
    68    0.04800   -0.07000    0.00000     0.06000   -0.06000    0.00000    0.00213      1       68    68       2
    69    0.06000   -0.06000    0.00000     0.06900   -0.04900    0.00000    0.00213      1       69    69       2
    70    0.06900   -0.04900    0.00000     0.07600   -0.03700    0.00000    0.00213      1       70    70       2
    71    0.07600   -0.03700    0.00000     0.08200   -0.02300    0.00000    0.00213      1       71    71       2
    72    0.08200   -0.02300    0.00000     0.08400   -0.00900    0.00000    0.00213      1       72    72       2
    73    0.08500    0.00000    0.00000     0.08500    0.00000    0.21200    0.00213      5       73    77       3
    74    0.08400   -0.00900    0.00000     0.08400   -0.00900    0.21200    0.00213      5       78    82       4
      THE STRUCTURE HAS BEEN MOVED, MOVE DATA CARD IS -
        0    0   0.00000   0.00000   0.00000   0.00000   0.00000   8.00000   0.00000

   GROUND PLANE SPECIFIED.

   WHERE WIRE ENDS TOUCH GROUND, CURRENT WILL BE INTERPOLATED TO IMAGE IN GROUND PLANE.


   TOTAL SEGMENTS USED=   82     NO. SEG. IN A SYMMETRIC CELL=   82     SYMMETRY FLAG=  0


         - MULTIPLE WIRE JUNCTIONS -
 JUNCTION    SEGMENTS  (- FOR END 1, + FOR END 2)
  NONE




                                 - - - - SEGMENTATION DATA - - - -

                                        COORDINATES IN METERS

                         I+ AND I- INDICATE THE SEGMENTS BEFORE AND AFTER I


  SEG.   COORDINATES OF SEG. CENTER     SEG.     ORIENTATION ANGLES    WIRE    CONNECTION DATA   TAG
  NO.       X         Y         Z       LENGTH     ALPHA     BETA      RADIUS    I-   I    I+    NO.
     1   0.08450   0.00700   8.21200   0.01404    0.00000  94.08562   0.00213    77    1    2      1
     2   0.08200   0.02150   8.21200   0.01552    0.00000 104.93142   0.00213     1    2    3      1
     3   0.07700   0.03550   8.21200   0.01432    0.00000 114.77514   0.00213     2    3    4      1
     4   0.07000   0.04800   8.21200   0.01442    0.00000 123.69007   0.00213     3    4    5      1
     5   0.06050   0.05900   8.21200   0.01487    0.00000 137.72631   0.00213     4    5    6      1
     6   0.04950   0.06850   8.21200   0.01421    0.00000 140.71059   0.00213     5    6    7      1
     7   0.03750   0.07600   8.21200   0.01432    0.00000 155.22486   0.00213     6    7    8      1
     8   0.02400   0.08100   8.21200   0.01456    0.00000 164.05460   0.00213     7    8    9      1
     9   0.00950   0.08400   8.21200   0.01513    0.00000 172.40536   0.00213     8    9   10      1
    10  -0.00500   0.08450   8.21200   0.01404    0.00000-175.91438   0.00213     9   10   11      1
    11  -0.01900   0.08250   8.21200   0.01432    0.00000-167.90524   0.00213    10   11   12      1
    12  -0.03300   0.07800   8.21200   0.01523    0.00000-156.80141   0.00213    11   12   13      1
    13  -0.04600   0.07100   8.21200   0.01442    0.00000-146.30993   0.00213    12   13   14      1
    14  -0.05750   0.06200   8.21200   0.01487    0.00000-137.72631   0.00213    13   14   15      1
    15  -0.06750   0.05150   8.21200   0.01421    0.00000-129.28941   0.00213    14   15   16      1
    16  -0.07500   0.03950   8.21200   0.01432    0.00000-114.77514   0.00213    15   16   17      1
    17  -0.08050   0.02600   8.21200   0.01487    0.00000-109.65382   0.00213    16   17   18      1
    18  -0.08400   0.01150   8.21200   0.01513    0.00000 -97.59464   0.00213    17   18   19      1
    19  -0.08450  -0.00300   8.21200   0.01404    0.00000 -85.91438   0.00213    18   19   20      1
    20  -0.08250  -0.01700   8.21200   0.01432    0.00000 -77.90524   0.00213    19   20   21      1
    21  -0.07850  -0.03100   8.21200   0.01487    0.00000 -70.34618   0.00213    20   21   22      1
    22  -0.07200  -0.04400   8.21200   0.01442    0.00000 -56.30993   0.00213    21   22   23      1
    23  -0.06350  -0.05550   8.21200   0.01421    0.00000 -50.71059   0.00213    22   23   24      1
    24  -0.05300  -0.06550   8.21200   0.01500    0.00000 -36.86990   0.00213    23   24   25      1
    25  -0.04100  -0.07350   8.21200   0.01389    0.00000 -30.25644   0.00213    24   25   26      1
    26  -0.02800  -0.07950   8.21200   0.01487    0.00000 -19.65382   0.00213    25   26   27      1
    27  -0.01400  -0.08350   8.21200   0.01432    0.00000 -12.09476   0.00213    26   27   28      1
    28   0.00050  -0.08450   8.21200   0.01503    0.00000   3.81407   0.00213    27   28   29      1
    29   0.01500  -0.08300   8.21200   0.01414    0.00000   8.13010   0.00213    28   29   30      1
    30   0.02900  -0.07950   8.21200   0.01487    0.00000  19.65382   0.00213    29   30   31      1
    31   0.04200  -0.07350   8.21200   0.01389    0.00000  30.25644   0.00213    30   31   32      1
    32   0.05400  -0.06500   8.21200   0.01562    0.00000  39.80557   0.00213    31   32   33      1
    33   0.06450  -0.05450   8.21200   0.01421    0.00000  50.71059   0.00213    32   33   34      1
    34   0.07250  -0.04300   8.21200   0.01389    0.00000  59.74356   0.00213    33   34   35      1
    35   0.07900  -0.03000   8.21200   0.01523    0.00000  66.80141   0.00213    34   35   36      1
    36   0.08300  -0.01600   8.21200   0.01414    0.00000  81.86990   0.00213    35   36  -82    999
    37   0.08450   0.00700   8.00000   0.01404    0.00000  94.08562   0.00213   -73   37   38      2
    38   0.08200   0.02150   8.00000   0.01552    0.00000 104.93142   0.00213    37   38   39      2
    39   0.07700   0.03550   8.00000   0.01432    0.00000 114.77514   0.00213    38   39   40      2
    40   0.07000   0.04800   8.00000   0.01442    0.00000 123.69007   0.00213    39   40   41      2
    41   0.06050   0.05900   8.00000   0.01487    0.00000 137.72631   0.00213    40   41   42      2
    42   0.04950   0.06850   8.00000   0.01421    0.00000 140.71059   0.00213    41   42   43      2
    43   0.03750   0.07600   8.00000   0.01432    0.00000 155.22486   0.00213    42   43   44      2
    44   0.02400   0.08100   8.00000   0.01456    0.00000 164.05460   0.00213    43   44   45      2
    45   0.00950   0.08400   8.00000   0.01513    0.00000 172.40536   0.00213    44   45   46      2
    46  -0.00500   0.08450   8.00000   0.01404    0.00000-175.91438   0.00213    45   46   47      2
    47  -0.01900   0.08250   8.00000   0.01432    0.00000-167.90524   0.00213    46   47   48      2
    48  -0.03300   0.07800   8.00000   0.01523    0.00000-156.80141   0.00213    47   48   49      2
    49  -0.04600   0.07100   8.00000   0.01442    0.00000-146.30993   0.00213    48   49   50      2
    50  -0.05750   0.06200   8.00000   0.01487    0.00000-137.72631   0.00213    49   50   51      2
    51  -0.06750   0.05150   8.00000   0.01421    0.00000-129.28941   0.00213    50   51   52      2
    52  -0.07500   0.03950   8.00000   0.01432    0.00000-114.77514   0.00213    51   52   53      2
    53  -0.08050   0.02600   8.00000   0.01487    0.00000-109.65382   0.00213    52   53   54      2
    54  -0.08400   0.01150   8.00000   0.01513    0.00000 -97.59464   0.00213    53   54   55      2
    55  -0.08450  -0.00300   8.00000   0.01404    0.00000 -85.91438   0.00213    54   55   56      2
    56  -0.08250  -0.01700   8.00000   0.01432    0.00000 -77.90524   0.00213    55   56   57      2
    57  -0.07850  -0.03100   8.00000   0.01487    0.00000 -70.34618   0.00213    56   57   58      2
    58  -0.07200  -0.04400   8.00000   0.01442    0.00000 -56.30993   0.00213    57   58   59      2
    59  -0.06350  -0.05550   8.00000   0.01421    0.00000 -50.71059   0.00213    58   59   60      2
    60  -0.05300  -0.06550   8.00000   0.01500    0.00000 -36.86990   0.00213    59   60   61      2
    61  -0.04100  -0.07350   8.00000   0.01389    0.00000 -30.25644   0.00213    60   61   62      2
    62  -0.02800  -0.07950   8.00000   0.01487    0.00000 -19.65382   0.00213    61   62   63      2
    63  -0.01400  -0.08350   8.00000   0.01432    0.00000 -12.09476   0.00213    62   63   64      2
    64   0.00050  -0.08450   8.00000   0.01503    0.00000   3.81407   0.00213    63   64   65      2
    65   0.01500  -0.08300   8.00000   0.01414    0.00000   8.13010   0.00213    64   65   66      2
    66   0.02900  -0.07950   8.00000   0.01487    0.00000  19.65382   0.00213    65   66   67      2
    67   0.04200  -0.07350   8.00000   0.01389    0.00000  30.25644   0.00213    66   67   68      2
    68   0.05400  -0.06500   8.00000   0.01562    0.00000  39.80557   0.00213    67   68   69      2
    69   0.06450  -0.05450   8.00000   0.01421    0.00000  50.71059   0.00213    68   69   70      2
    70   0.07250  -0.04300   8.00000   0.01389    0.00000  59.74356   0.00213    69   70   71      2
    71   0.07900  -0.03000   8.00000   0.01523    0.00000  66.80141   0.00213    70   71   72      2
    72   0.08300  -0.01600   8.00000   0.01414    0.00000  81.86990   0.00213    71   72   78      2
    73   0.08500   0.00000   8.02120   0.04240   90.00000   0.00000   0.00213   -37   73   74      3
    74   0.08500   0.00000   8.06360   0.04240   90.00000   0.00000   0.00213    73   74   75      3
    75   0.08500   0.00000   8.10600   0.04240   90.00000   0.00000   0.00213    74   75   76      3
    76   0.08500   0.00000   8.14840   0.04240   90.00000   0.00000   0.00213    75   76   77      3
    77   0.08500   0.00000   8.19080   0.04240   90.00000   0.00000   0.00213    76   77    1      3
    78   0.08400  -0.00900   8.02120   0.04240   90.00000   0.00000   0.00213    72   78   79      4
    79   0.08400  -0.00900   8.06360   0.04240   90.00000   0.00000   0.00213    78   79   80      4
    80   0.08400  -0.00900   8.10600   0.04240   90.00000   0.00000   0.00213    79   80   81      4
    81   0.08400  -0.00900   8.14840   0.04240   90.00000   0.00000   0.00213    80   81   82      4
    82   0.08400  -0.00900   8.19080   0.04240   90.00000   0.00000   0.00213    81   82  -36      4






 ***** DATA CARD NO.  1   GN   2     0     0     0  1.10000E+01  1.00000E-02  0.00000E+00  0.00000E+00  0.00000E+00  0.00000E+00
 ***** DATA CARD NO.  2   EK   0     0     0     0  0.00000E+00  0.00000E+00  0.00000E+00  0.00000E+00  0.00000E+00  0.00000E+00
 ***** DATA CARD NO.  3   LD   5     0     0     0  5.80000E+07  0.00000E+00  0.00000E+00  0.00000E+00  0.00000E+00  0.00000E+00
 ***** DATA CARD NO.  4   EX   0   999     1     0  1.00000E+00  0.00000E+00  0.00000E+00  0.00000E+00  0.00000E+00  0.00000E+00
 ***** DATA CARD NO.  5   FR   0     1     0     0  1.44200E+02  0.00000E+00  0.00000E+00  0.00000E+00  0.00000E+00  0.00000E+00
 ***** DATA CARD NO.  6   RP   0     1     1  1000  8.50000E+01  9.00000E+01  0.00000E+00  0.00000E+00  0.00000E+00  0.00000E+00




                                 - - - - - - FREQUENCY - - - - - -

                                    FREQUENCY= 1.4420E+02 MHZ
                                    WAVELENGTH= 2.0791E+00 METERS




                    APPROXIMATE INTEGRATION EMPLOYED FOR SEGMENTS MORE THAN   1.000 WAVELENGTHS APART

                    THE EXTENDED THIN WIRE KERNEL WILL BE USED



                               - - - STRUCTURE IMPEDANCE LOADING - - -


       LOCATION          RESISTANCE   INDUCTANCE  CAPACITANCE       IMPEDANCE (OHMS)     CONDUCTIVITY    TYPE
    ITAG FROM THRU          OHMS        HENRYS       FARADS        REAL      IMAGINARY    MHOS/METER

     ALL                                                                                 5.8000E+07     WIRE  



                                  - - - ANTENNA ENVIRONMENT - - -

                                        FINITE GROUND.  SOMMERFELD SOLUTION
                                        RELATIVE DIELECTRIC CONST.= 11.000
                                        CONDUCTIVITY= 1.000E-02 MHOS/METER
                                        COMPLEX DIELECTRIC CONSTANT= 1.10000E+01-1.24660E+00



                                - - - MATRIX TIMING - - -

                        FILL=    0.031 SEC.,  FACTOR=    0.000 SEC.



                                          - - - ANTENNA INPUT PARAMETERS - - -

   TAG   SEG.    VOLTAGE (VOLTS)         CURRENT (AMPS)         IMPEDANCE (OHMS)        ADMITTANCE (MHOS)      POWER
   NO.   NO.    REAL        IMAG.       REAL        IMAG.       REAL        IMAG.       REAL        IMAG.     (WATTS)
   999    36 1.00000E+00 0.00000E+00 1.40176E-04 3.93240E-03 9.05327E+00-2.53975E+02 1.40176E-04 3.93240E-03 7.00878E-05



                             - - - CURRENTS AND LOCATION - - -

                                 DISTANCES IN WAVELENGTHS


  SEG.  TAG    COORD. OF SEG. CENTER     SEG.            - - - CURRENT (AMPS) - - -
  NO.   NO.     X        Y        Z      LENGTH     REAL        IMAG.       MAG.        PHASE
     1    1   0.0406   0.0034   3.9499  0.00675   9.6804E-06  4.9548E-04  4.9557E-04   88.881
     2    1   0.0394   0.0103   3.9499  0.00747   1.7833E-05  7.1909E-04  7.1931E-04   88.579
     3    1   0.0370   0.0171   3.9499  0.00689   2.5571E-05  9.1230E-04  9.1265E-04   88.394
     4    1   0.0337   0.0231   3.9499  0.00694   3.2888E-05  1.0856E-03  1.0861E-03   88.265
     5    1   0.0291   0.0284   3.9499  0.00715   4.0277E-05  1.2537E-03  1.2543E-03   88.160
     6    1   0.0238   0.0329   3.9499  0.00684   4.7548E-05  1.4140E-03  1.4148E-03   88.074
     7    1   0.0180   0.0366   3.9499  0.00689   5.4662E-05  1.5662E-03  1.5672E-03   88.001
     8    1   0.0115   0.0390   3.9499  0.00700   6.1797E-05  1.7157E-03  1.7168E-03   87.937
     9    1   0.0046   0.0404   3.9499  0.00728   6.9044E-05  1.8649E-03  1.8661E-03   87.880
    10    1  -0.0024   0.0406   3.9499  0.00675   7.6059E-05  2.0072E-03  2.0086E-03   87.830
    11    1  -0.0091   0.0397   3.9499  0.00689   8.2734E-05  2.1415E-03  2.1431E-03   87.788
    12    1  -0.0159   0.0375   3.9499  0.00733   8.9515E-05  2.2774E-03  2.2792E-03   87.749
    13    1  -0.0221   0.0342   3.9499  0.00694   9.6092E-05  2.4095E-03  2.4114E-03   87.716
    14    1  -0.0277   0.0298   3.9499  0.00715   1.0232E-04  2.5355E-03  2.5375E-03   87.689
    15    1  -0.0325   0.0248   3.9499  0.00684   1.0823E-04  2.6562E-03  2.6584E-03   87.667
    16    1  -0.0361   0.0190   3.9499  0.00689   1.1372E-04  2.7704E-03  2.7727E-03   87.649
    17    1  -0.0387   0.0125   3.9499  0.00715   1.1896E-04  2.8823E-03  2.8848E-03   87.637
    18    1  -0.0404   0.0055   3.9499  0.00728   1.2398E-04  2.9925E-03  2.9951E-03   87.628
    19    1  -0.0406  -0.0014   3.9499  0.00675   1.2845E-04  3.0945E-03  3.0972E-03   87.623
    20    1  -0.0397  -0.0082   3.9499  0.00689   1.3238E-04  3.1886E-03  3.1914E-03   87.623
    21    1  -0.0378  -0.0149   3.9499  0.00715   1.3601E-04  3.2802E-03  3.2830E-03   87.626
    22    1  -0.0346  -0.0212   3.9499  0.00694   1.3922E-04  3.3666E-03  3.3695E-03   87.632
    23    1  -0.0305  -0.0267   3.9499  0.00684   1.4193E-04  3.4454E-03  3.4483E-03   87.641
    24    1  -0.0255  -0.0315   3.9499  0.00721   1.4426E-04  3.5201E-03  3.5230E-03   87.653
    25    1  -0.0197  -0.0354   3.9499  0.00668   1.4615E-04  3.5878E-03  3.5908E-03   87.667
    26    1  -0.0135  -0.0382   3.9499  0.00715   1.4761E-04  3.6493E-03  3.6523E-03   87.684
    27    1  -0.0067  -0.0402   3.9499  0.00689   1.4870E-04  3.7053E-03  3.7083E-03   87.702
    28    1   0.0002  -0.0406   3.9499  0.00723   1.4940E-04  3.7552E-03  3.7582E-03   87.722
    29    1   0.0072  -0.0399   3.9499  0.00680   1.4971E-04  3.7978E-03  3.8008E-03   87.743
    30    1   0.0139  -0.0382   3.9499  0.00715   1.4966E-04  3.8337E-03  3.8366E-03   87.764
    31    1   0.0202  -0.0354   3.9499  0.00668   1.4926E-04  3.8626E-03  3.8654E-03   87.787
    32    1   0.0260  -0.0313   3.9499  0.00751   1.4848E-04  3.8853E-03  3.8881E-03   87.811
    33    1   0.0310  -0.0262   3.9499  0.00684   1.4729E-04  3.9015E-03  3.9043E-03   87.838
    34    1   0.0349  -0.0207   3.9499  0.00668   1.4573E-04  3.9115E-03  3.9142E-03   87.866
    35    1   0.0380  -0.0144   3.9499  0.00733   1.4354E-04  3.9274E-03  3.9301E-03   87.907
    36  999   0.0399  -0.0077   3.9499  0.00680   1.4018E-04  3.9324E-03  3.9349E-03   87.958
    37    2   0.0406   0.0034   3.8479  0.00675   1.3716E-04  5.3626E-03  5.3643E-03   88.535
    38    2   0.0394   0.0103   3.8479  0.00747   1.4029E-04  5.5475E-03  5.5492E-03   88.551
    39    2   0.0370   0.0171   3.8479  0.00689   1.4227E-04  5.6847E-03  5.6865E-03   88.566
    40    2   0.0337   0.0231   3.8479  0.00694   1.4361E-04  5.7913E-03  5.7931E-03   88.579
    41    2   0.0291   0.0284   3.8479  0.00715   1.4457E-04  5.8799E-03  5.8816E-03   88.592
    42    2   0.0238   0.0329   3.8479  0.00684   1.4519E-04  5.9513E-03  5.9530E-03   88.602
    43    2   0.0180   0.0366   3.8479  0.00689   1.4550E-04  6.0064E-03  6.0082E-03   88.612
    44    2   0.0115   0.0390   3.8479  0.00700   1.4552E-04  6.0487E-03  6.0505E-03   88.622
    45    2   0.0046   0.0404   3.8479  0.00728   1.4523E-04  6.0788E-03  6.0806E-03   88.631
    46    2  -0.0024   0.0406   3.8479  0.00675   1.4463E-04  6.0957E-03  6.0974E-03   88.641
    47    2  -0.0091   0.0397   3.8479  0.00689   1.4373E-04  6.1005E-03  6.1021E-03   88.650
    48    2  -0.0159   0.0375   3.8479  0.00733   1.4245E-04  6.0936E-03  6.0953E-03   88.661
    49    2  -0.0221   0.0342   3.8479  0.00694   1.4078E-04  6.0749E-03  6.0766E-03   88.672
    50    2  -0.0277   0.0298   3.8479  0.00715   1.3876E-04  6.0453E-03  6.0469E-03   88.685
    51    2  -0.0325   0.0248   3.8479  0.00684   1.3635E-04  6.0049E-03  6.0065E-03   88.699
    52    2  -0.0361   0.0190   3.8479  0.00689   1.3360E-04  5.9549E-03  5.9564E-03   88.715
    53    2  -0.0387   0.0125   3.8479  0.00715   1.3038E-04  5.8936E-03  5.8950E-03   88.733
    54    2  -0.0404   0.0055   3.8479  0.00728   1.2663E-04  5.8197E-03  5.8211E-03   88.753
    55    2  -0.0406  -0.0014   3.8479  0.00675   1.2256E-04  5.7376E-03  5.7389E-03   88.776
    56    2  -0.0397  -0.0082   3.8479  0.00689   1.1822E-04  5.6486E-03  5.6498E-03   88.801
    57    2  -0.0378  -0.0149   3.8479  0.00715   1.1336E-04  5.5474E-03  5.5486E-03   88.829
    58    2  -0.0346  -0.0212   3.8479  0.00694   1.0809E-04  5.4362E-03  5.4373E-03   88.861
    59    2  -0.0305  -0.0267   3.8479  0.00684   1.0259E-04  5.3187E-03  5.3197E-03   88.895
    60    2  -0.0255  -0.0315   3.8479  0.00721   9.6636E-05  5.1896E-03  5.1905E-03   88.933
    61    2  -0.0197  -0.0354   3.8479  0.00668   9.0457E-05  5.0532E-03  5.0540E-03   88.974
    62    2  -0.0135  -0.0382   3.8479  0.00715   8.4031E-05  4.9089E-03  4.9097E-03   89.019
    63    2  -0.0067  -0.0402   3.8479  0.00689   7.7266E-05  4.7539E-03  4.7545E-03   89.069
    64    2   0.0002  -0.0406   3.8479  0.00723   7.0235E-05  4.5892E-03  4.5898E-03   89.123
    65    2   0.0072  -0.0399   3.8479  0.00680   6.3100E-05  4.4172E-03  4.4177E-03   89.182
    66    2   0.0139  -0.0382   3.8479  0.00715   5.5847E-05  4.2375E-03  4.2379E-03   89.245
    67    2   0.0202  -0.0354   3.8479  0.00668   4.8540E-05  4.0505E-03  4.0508E-03   89.313
    68    2   0.0260  -0.0313   3.8479  0.00751   4.0952E-05  3.8492E-03  3.8494E-03   89.390
    69    2   0.0310  -0.0262   3.8479  0.00684   3.3196E-05  3.6348E-03  3.6349E-03   89.477
    70    2   0.0349  -0.0207   3.8479  0.00668   2.5802E-05  3.4209E-03  3.4210E-03   89.568
    71    2   0.0380  -0.0144   3.8479  0.00733   1.7994E-05  3.1831E-03  3.1831E-03   89.676
    72    2   0.0399  -0.0077   3.8479  0.00680   9.6534E-06  2.9099E-03  2.9100E-03   89.810
    73    3   0.0409   0.0000   3.8581  0.02039  -1.2405E-04 -4.7430E-03  4.7446E-03  -91.498
    74    3   0.0409   0.0000   3.8785  0.02039  -9.8868E-05 -3.6476E-03  3.6489E-03  -91.553
    75    3   0.0409   0.0000   3.8989  0.02039  -7.0675E-05 -2.4870E-03  2.4880E-03  -91.628
    76    3   0.0409   0.0000   3.9193  0.02039  -4.0598E-05 -1.3064E-03  1.3070E-03  -91.780
    77    3   0.0409   0.0000   3.9397  0.02039  -9.7331E-06 -1.5899E-04  1.5929E-04  -93.503
    78    4   0.0404  -0.0043   3.8581  0.02039  -1.0101E-05  2.1727E-03  2.1727E-03   90.266
    79    4   0.0404  -0.0043   3.8785  0.02039  -4.1471E-05  9.1408E-04  9.1502E-04   92.598
    80    4   0.0404  -0.0043   3.8989  0.02039  -7.2102E-05 -4.0383E-04  4.1021E-04 -100.123
    81    4   0.0404  -0.0043   3.9193  0.02039  -1.0088E-04 -1.7410E-03  1.7440E-03  -93.316
    82    4   0.0404  -0.0043   3.9397  0.02039  -1.2665E-04 -3.0859E-03  3.0885E-03  -92.350



                                        - - - POWER BUDGET - - -

                                           INPUT POWER   = 7.0088E-05 WATTS
                                           RADIATED POWER= 6.7518E-05 WATTS
                                           STRUCTURE LOSS= 2.5694E-06 WATTS
                                           NETWORK LOSS  = 0.0000E+00 WATTS
                                           EFFICIENCY    =  96.33 PERCENT



                                                - - - RADIATION PATTERNS - - -

  - - ANGLES - -           - POWER GAINS -       - - - POLARIZATION - - -    - - - E(THETA) - - -    - - - E(PHI) - - -
  THETA     PHI        VERT.   HOR.    TOTAL      AXIAL     TILT   SENSE     MAGNITUDE    PHASE      MAGNITUDE    PHASE 
 DEGREES  DEGREES       DB      DB      DB        RATIO     DEG.              VOLTS/M    DEGREES      VOLTS/M    DEGREES
   85.00    90.00       0.98    1.99    4.52    0.87419    74.94  LEFT      7.25511E-02    96.99    8.14851E-02  -176.88






 ***** DATA CARD NO.  7   EN   0     1     1  1000  8.50000E+01  9.00000E+01  0.00000E+00  0.00000E+00  0.00000E+00  0.00000E+00

 RUN TIME =     0.109
