1



                                 *********************************************

                                    NUMERICAL ELECTROMAGNETICS CODE (NEC-2D)

                                 *********************************************




                                     - - - - COMMENTS - - - -


                          No comments specified                                                      
                                                                                                     




                                 - - - STRUCTURE SPECIFICATION - - -

                                     COORDINATES MUST BE INPUT IN
                                     METERS OR BE SCALED TO METERS
                                     BEFORE STRUCTURE INPUT IS ENDED


  WIRE                                                                               NO. OF    FIRST  LAST     TAG
  NO.        X1         Y1         Z1          X2         Y2         Z2      RADIUS   SEG.     SEG.   SEG.     NO.
     1    0.10200    0.00000    0.21800     0.10000    0.01700    0.21800    0.00261      1        1     1       1
     2    0.10000    0.01700    0.21800     0.09600    0.03400    0.21800    0.00261      1        2     2       1
     3    0.09600    0.03400    0.21800     0.08900    0.05000    0.21800    0.00261      1        3     3       1
     4    0.08900    0.05000    0.21800     0.07900    0.06500    0.21800    0.00261      1        4     4       1
     5    0.07900    0.06500    0.21800     0.06700    0.07700    0.21800    0.00261      1        5     5       1
     6    0.06700    0.07700    0.21800     0.05200    0.08700    0.21800    0.00261      1        6     6       1
     7    0.05200    0.08700    0.21800     0.03700    0.09500    0.21800    0.00261      1        7     7       1
     8    0.03700    0.09500    0.21800     0.02000    0.10000    0.21800    0.00261      1        8     8       1
     9    0.02000    0.10000    0.21800     0.00200    0.10200    0.21800    0.00261      1        9     9       1
    10    0.00200    0.10200    0.21800    -0.01500    0.10100    0.21800    0.00261      1       10    10       1
    11   -0.01500    0.10100    0.21800    -0.03200    0.09700    0.21800    0.00261      1       11    11       1
    12   -0.03200    0.09700    0.21800    -0.04800    0.09000    0.21800    0.00261      1       12    12       1
    13   -0.04800    0.09000    0.21800    -0.06300    0.08000    0.21800    0.00261      1       13    13       1
    14   -0.06300    0.08000    0.21800    -0.07600    0.06800    0.21800    0.00261      1       14    14       1
    15   -0.07600    0.06800    0.21800    -0.08600    0.05400    0.21800    0.00261      1       15    15       1
    16   -0.08600    0.05400    0.21800    -0.09400    0.03900    0.21800    0.00261      1       16    16       1
    17   -0.09400    0.03900    0.21800    -0.10000    0.02200    0.21800    0.00261      1       17    17       1
    18   -0.10000    0.02200    0.21800    -0.10200    0.00500    0.21800    0.00261      1       18    18       1
    19   -0.10200    0.00500    0.21800    -0.10100   -0.01300    0.21800    0.00261      1       19    19       1
    20   -0.10100   -0.01300    0.21800    -0.09800   -0.03000    0.21800    0.00261      1       20    20       1
    21   -0.09800   -0.03000    0.21800    -0.09100   -0.04600    0.21800    0.00261      1       21    21       1
    22   -0.09100   -0.04600    0.21800    -0.08200   -0.06100    0.21800    0.00261      1       22    22       1
    23   -0.08200   -0.06100    0.21800    -0.07000   -0.07400    0.21800    0.00261      1       23    23       1
    24   -0.07000   -0.07400    0.21800    -0.05600   -0.08500    0.21800    0.00261      1       24    24       1
    25   -0.05600   -0.08500    0.21800    -0.04100   -0.09300    0.21800    0.00261      1       25    25       1
    26   -0.04100   -0.09300    0.21800    -0.02500   -0.09900    0.21800    0.00261      1       26    26       1
    27   -0.02500   -0.09900    0.21800    -0.00700   -0.10200    0.21800    0.00261      1       27    27       1
    28   -0.00700   -0.10200    0.21800     0.01000   -0.10100    0.21800    0.00261      1       28    28       1
    29    0.01000   -0.10100    0.21800     0.02800   -0.09800    0.21800    0.00261      1       29    29       1
    30    0.02800   -0.09800    0.21800     0.04400   -0.09200    0.21800    0.00261      1       30    30       1
    31    0.04400   -0.09200    0.21800     0.05900   -0.08300    0.21800    0.00261      1       31    31       1
    32    0.05900   -0.08300    0.21800     0.07200   -0.07200    0.21800    0.00261      1       32    32       1
    33    0.07200   -0.07200    0.21800     0.08400   -0.05800    0.21800    0.00261      1       33    33       1
    34    0.08400   -0.05800    0.21800     0.09200   -0.04300    0.21800    0.00261      1       34    34       1
    35    0.09200   -0.04300    0.21800     0.09800   -0.02700    0.21800    0.00261      1       35    35       1
    36    0.09800   -0.02700    0.21800     0.10200   -0.01000    0.21800    0.00261      1       36    36     999
    37    0.10200    0.00000    0.00000     0.10000    0.01700    0.00000    0.00261      1       37    37       2
    38    0.10000    0.01700    0.00000     0.09600    0.03400    0.00000    0.00261      1       38    38       2
    39    0.09600    0.03400    0.00000     0.08900    0.05000    0.00000    0.00261      1       39    39       2
    40    0.08900    0.05000    0.00000     0.07900    0.06500    0.00000    0.00261      1       40    40       2
    41    0.07900    0.06500    0.00000     0.06700    0.07700    0.00000    0.00261      1       41    41       2
    42    0.06700    0.07700    0.00000     0.05200    0.08700    0.00000    0.00261      1       42    42       2
    43    0.05200    0.08700    0.00000     0.03700    0.09500    0.00000    0.00261      1       43    43       2
    44    0.03700    0.09500    0.00000     0.02000    0.10000    0.00000    0.00261      1       44    44       2
    45    0.02000    0.10000    0.00000     0.00200    0.10200    0.00000    0.00261      1       45    45       2
    46    0.00200    0.10200    0.00000    -0.01500    0.10100    0.00000    0.00261      1       46    46       2
    47   -0.01500    0.10100    0.00000    -0.03200    0.09700    0.00000    0.00261      1       47    47       2
    48   -0.03200    0.09700    0.00000    -0.04800    0.09000    0.00000    0.00261      1       48    48       2
    49   -0.04800    0.09000    0.00000    -0.06300    0.08000    0.00000    0.00261      1       49    49       2
    50   -0.06300    0.08000    0.00000    -0.07600    0.06800    0.00000    0.00261      1       50    50       2
    51   -0.07600    0.06800    0.00000    -0.08600    0.05400    0.00000    0.00261      1       51    51       2
    52   -0.08600    0.05400    0.00000    -0.09400    0.03900    0.00000    0.00261      1       52    52       2
    53   -0.09400    0.03900    0.00000    -0.10000    0.02200    0.00000    0.00261      1       53    53       2
    54   -0.10000    0.02200    0.00000    -0.10200    0.00500    0.00000    0.00261      1       54    54       2
    55   -0.10200    0.00500    0.00000    -0.10100   -0.01300    0.00000    0.00261      1       55    55       2
    56   -0.10100   -0.01300    0.00000    -0.09800   -0.03000    0.00000    0.00261      1       56    56       2
    57   -0.09800   -0.03000    0.00000    -0.09100   -0.04600    0.00000    0.00261      1       57    57       2
    58   -0.09100   -0.04600    0.00000    -0.08200   -0.06100    0.00000    0.00261      1       58    58       2
    59   -0.08200   -0.06100    0.00000    -0.07000   -0.07400    0.00000    0.00261      1       59    59       2
    60   -0.07000   -0.07400    0.00000    -0.05600   -0.08500    0.00000    0.00261      1       60    60       2
    61   -0.05600   -0.08500    0.00000    -0.04100   -0.09300    0.00000    0.00261      1       61    61       2
    62   -0.04100   -0.09300    0.00000    -0.02500   -0.09900    0.00000    0.00261      1       62    62       2
    63   -0.02500   -0.09900    0.00000    -0.00700   -0.10200    0.00000    0.00261      1       63    63       2
    64   -0.00700   -0.10200    0.00000     0.01000   -0.10100    0.00000    0.00261      1       64    64       2
    65    0.01000   -0.10100    0.00000     0.02800   -0.09800    0.00000    0.00261      1       65    65       2
    66    0.02800   -0.09800    0.00000     0.04400   -0.09200    0.00000    0.00261      1       66    66       2
    67    0.04400   -0.09200    0.00000     0.05900   -0.08300    0.00000    0.00261      1       67    67       2
    68    0.05900   -0.08300    0.00000     0.07200   -0.07200    0.00000    0.00261      1       68    68       2
    69    0.07200   -0.07200    0.00000     0.08400   -0.05800    0.00000    0.00261      1       69    69       2
    70    0.08400   -0.05800    0.00000     0.09200   -0.04300    0.00000    0.00261      1       70    70       2
    71    0.09200   -0.04300    0.00000     0.09800   -0.02700    0.00000    0.00261      1       71    71       2
    72    0.09800   -0.02700    0.00000     0.10200   -0.01000    0.00000    0.00261      1       72    72       2
    73    0.10200    0.00000    0.00000     0.10200    0.00000    0.21800    0.00261      5       73    77       3
    74    0.10200   -0.01000    0.00000     0.10200   -0.01000    0.21800    0.00261      5       78    82       4
      THE STRUCTURE HAS BEEN MOVED, MOVE DATA CARD IS -
        0    0   0.00000   0.00000   0.00000   0.00000   0.00000   8.00000   0.00000

   GROUND PLANE SPECIFIED.

   TOTAL SEGMENTS USED=   82     NO. SEG. IN A SYMMETRIC CELL=   82     SYMMETRY FLAG=  0


         - MULTIPLE WIRE JUNCTIONS -
 JUNCTION    SEGMENTS  (- FOR END 1, + FOR END 2)
  NONE




                                 - - - - SEGMENTATION DATA - - - -

                                        COORDINATES IN METERS

                         I+ AND I- INDICATE THE SEGMENTS BEFORE AND AFTER I


  SEG.   COORDINATES OF SEG. CENTER     SEG.     ORIENTATION ANGLES    WIRE    CONNECTION DATA   TAG
  NO.       X         Y         Z       LENGTH     ALPHA     BETA      RADIUS    I-   I    I+    NO.
     1   0.10100   0.00850   8.21800   0.01712    0.00000  96.70984   0.00261    77    1    2      1
     2   0.09800   0.02550   8.21800   0.01746    0.00000 103.24052   0.00261     1    2    3      1
     3   0.09250   0.04200   8.21800   0.01746    0.00000 113.62938   0.00261     2    3    4      1
     4   0.08400   0.05750   8.21800   0.01803    0.00000 123.69007   0.00261     3    4    5      1
     5   0.07300   0.07100   8.21800   0.01697    0.00000 135.00000   0.00261     4    5    6      1
     6   0.05950   0.08200   8.21800   0.01803    0.00000 146.30993   0.00261     5    6    7      1
     7   0.04450   0.09100   8.21800   0.01700    0.00000 151.92751   0.00261     6    7    8      1
     8   0.02850   0.09750   8.21800   0.01772    0.00000 163.61046   0.00261     7    8    9      1
     9   0.01100   0.10100   8.21800   0.01811    0.00000 173.65981   0.00261     8    9   10      1
    10  -0.00650   0.10150   8.21800   0.01703    0.00000-176.63354   0.00261     9   10   11      1
    11  -0.02350   0.09900   8.21800   0.01746    0.00000-166.75948   0.00261    10   11   12      1
    12  -0.04000   0.09350   8.21800   0.01746    0.00000-156.37062   0.00261    11   12   13      1
    13  -0.05550   0.08500   8.21800   0.01803    0.00000-146.30993   0.00261    12   13   14      1
    14  -0.06950   0.07400   8.21800   0.01769    0.00000-137.29061   0.00261    13   14   15      1
    15  -0.08100   0.06100   8.21800   0.01720    0.00000-125.53768   0.00261    14   15   16      1
    16  -0.09000   0.04650   8.21800   0.01700    0.00000-118.07249   0.00261    15   16   17      1
    17  -0.09700   0.03050   8.21800   0.01803    0.00000-109.44003   0.00261    16   17   18      1
    18  -0.10100   0.01350   8.21800   0.01712    0.00000 -96.70984   0.00261    17   18   19      1
    19  -0.10150  -0.00400   8.21800   0.01803    0.00000 -86.82017   0.00261    18   19   20      1
    20  -0.09950  -0.02150   8.21800   0.01726    0.00000 -79.99202   0.00261    19   20   21      1
    21  -0.09450  -0.03800   8.21800   0.01746    0.00000 -66.37062   0.00261    20   21   22      1
    22  -0.08650  -0.05350   8.21800   0.01749    0.00000 -59.03624   0.00261    21   22   23      1
    23  -0.07600  -0.06750   8.21800   0.01769    0.00000 -47.29061   0.00261    22   23   24      1
    24  -0.06300  -0.07950   8.21800   0.01780    0.00000 -38.15723   0.00261    23   24   25      1
    25  -0.04850  -0.08900   8.21800   0.01700    0.00000 -28.07249   0.00261    24   25   26      1
    26  -0.03300  -0.09600   8.21800   0.01709    0.00000 -20.55605   0.00261    25   26   27      1
    27  -0.01600  -0.10050   8.21800   0.01825    0.00000  -9.46232   0.00261    26   27   28      1
    28   0.00150  -0.10150   8.21800   0.01703    0.00000   3.36646   0.00261    27   28   29      1
    29   0.01900  -0.09950   8.21800   0.01825    0.00000   9.46232   0.00261    28   29   30      1
    30   0.03600  -0.09500   8.21800   0.01709    0.00000  20.55605   0.00261    29   30   31      1
    31   0.05150  -0.08750   8.21800   0.01749    0.00000  30.96376   0.00261    30   31   32      1
    32   0.06550  -0.07750   8.21800   0.01703    0.00000  40.23636   0.00261    31   32   33      1
    33   0.07800  -0.06500   8.21800   0.01844    0.00000  49.39871   0.00261    32   33   34      1
    34   0.08800  -0.05050   8.21800   0.01700    0.00000  61.92751   0.00261    33   34   35      1
    35   0.09500  -0.03500   8.21800   0.01709    0.00000  69.44395   0.00261    34   35   36      1
    36   0.10000  -0.01850   8.21800   0.01746    0.00000  76.75948   0.00261    35   36  -82    999
    37   0.10100   0.00850   8.00000   0.01712    0.00000  96.70984   0.00261   -73   37   38      2
    38   0.09800   0.02550   8.00000   0.01746    0.00000 103.24052   0.00261    37   38   39      2
    39   0.09250   0.04200   8.00000   0.01746    0.00000 113.62938   0.00261    38   39   40      2
    40   0.08400   0.05750   8.00000   0.01803    0.00000 123.69007   0.00261    39   40   41      2
    41   0.07300   0.07100   8.00000   0.01697    0.00000 135.00000   0.00261    40   41   42      2
    42   0.05950   0.08200   8.00000   0.01803    0.00000 146.30993   0.00261    41   42   43      2
    43   0.04450   0.09100   8.00000   0.01700    0.00000 151.92751   0.00261    42   43   44      2
    44   0.02850   0.09750   8.00000   0.01772    0.00000 163.61046   0.00261    43   44   45      2
    45   0.01100   0.10100   8.00000   0.01811    0.00000 173.65981   0.00261    44   45   46      2
    46  -0.00650   0.10150   8.00000   0.01703    0.00000-176.63354   0.00261    45   46   47      2
    47  -0.02350   0.09900   8.00000   0.01746    0.00000-166.75948   0.00261    46   47   48      2
    48  -0.04000   0.09350   8.00000   0.01746    0.00000-156.37062   0.00261    47   48   49      2
    49  -0.05550   0.08500   8.00000   0.01803    0.00000-146.30993   0.00261    48   49   50      2
    50  -0.06950   0.07400   8.00000   0.01769    0.00000-137.29061   0.00261    49   50   51      2
    51  -0.08100   0.06100   8.00000   0.01720    0.00000-125.53768   0.00261    50   51   52      2
    52  -0.09000   0.04650   8.00000   0.01700    0.00000-118.07249   0.00261    51   52   53      2
    53  -0.09700   0.03050   8.00000   0.01803    0.00000-109.44003   0.00261    52   53   54      2
    54  -0.10100   0.01350   8.00000   0.01712    0.00000 -96.70984   0.00261    53   54   55      2
    55  -0.10150  -0.00400   8.00000   0.01803    0.00000 -86.82017   0.00261    54   55   56      2
    56  -0.09950  -0.02150   8.00000   0.01726    0.00000 -79.99202   0.00261    55   56   57      2
    57  -0.09450  -0.03800   8.00000   0.01746    0.00000 -66.37062   0.00261    56   57   58      2
    58  -0.08650  -0.05350   8.00000   0.01749    0.00000 -59.03624   0.00261    57   58   59      2
    59  -0.07600  -0.06750   8.00000   0.01769    0.00000 -47.29061   0.00261    58   59   60      2
    60  -0.06300  -0.07950   8.00000   0.01780    0.00000 -38.15723   0.00261    59   60   61      2
    61  -0.04850  -0.08900   8.00000   0.01700    0.00000 -28.07249   0.00261    60   61   62      2
    62  -0.03300  -0.09600   8.00000   0.01709    0.00000 -20.55605   0.00261    61   62   63      2
    63  -0.01600  -0.10050   8.00000   0.01825    0.00000  -9.46232   0.00261    62   63   64      2
    64   0.00150  -0.10150   8.00000   0.01703    0.00000   3.36646   0.00261    63   64   65      2
    65   0.01900  -0.09950   8.00000   0.01825    0.00000   9.46232   0.00261    64   65   66      2
    66   0.03600  -0.09500   8.00000   0.01709    0.00000  20.55605   0.00261    65   66   67      2
    67   0.05150  -0.08750   8.00000   0.01749    0.00000  30.96376   0.00261    66   67   68      2
    68   0.06550  -0.07750   8.00000   0.01703    0.00000  40.23636   0.00261    67   68   69      2
    69   0.07800  -0.06500   8.00000   0.01844    0.00000  49.39871   0.00261    68   69   70      2
    70   0.08800  -0.05050   8.00000   0.01700    0.00000  61.92751   0.00261    69   70   71      2
    71   0.09500  -0.03500   8.00000   0.01709    0.00000  69.44395   0.00261    70   71   72      2
    72   0.10000  -0.01850   8.00000   0.01746    0.00000  76.75948   0.00261    71   72   78      2
    73   0.10200   0.00000   8.02180   0.04360   90.00000   0.00000   0.00261   -37   73   74      3
    74   0.10200   0.00000   8.06540   0.04360   90.00000   0.00000   0.00261    73   74   75      3
    75   0.10200   0.00000   8.10900   0.04360   90.00000   0.00000   0.00261    74   75   76      3
    76   0.10200   0.00000   8.15260   0.04360   90.00000   0.00000   0.00261    75   76   77      3
    77   0.10200   0.00000   8.19620   0.04360   90.00000   0.00000   0.00261    76   77    1      3
    78   0.10200  -0.01000   8.02180   0.04360   90.00000   0.00000   0.00261    72   78   79      4
    79   0.10200  -0.01000   8.06540   0.04360   90.00000   0.00000   0.00261    78   79   80      4
    80   0.10200  -0.01000   8.10900   0.04360   90.00000   0.00000   0.00261    79   80   81      4
    81   0.10200  -0.01000   8.15260   0.04360   90.00000   0.00000   0.00261    80   81   82      4
    82   0.10200  -0.01000   8.19620   0.04360   90.00000   0.00000   0.00261    81   82  -36      4






 ***** DATA CARD NO.  1   GN   2     0     0     0  1.10000E+01  1.00000E-02  0.00000E+00  0.00000E+00  0.00000E+00  0.00000E+00
 ***** DATA CARD NO.  2   EK   0     0     0     0  0.00000E+00  0.00000E+00  0.00000E+00  0.00000E+00  0.00000E+00  0.00000E+00
 ***** DATA CARD NO.  3   LD   5     0     0     0  5.80000E+07  0.00000E+00  0.00000E+00  0.00000E+00  0.00000E+00  0.00000E+00
 ***** DATA CARD NO.  4   EX   0   999     1     0  1.00000E+00  0.00000E+00  0.00000E+00  0.00000E+00  0.00000E+00  0.00000E+00
 ***** DATA CARD NO.  5   FR   0     1     0     0  1.44200E+02  0.00000E+00  0.00000E+00  0.00000E+00  0.00000E+00  0.00000E+00
 ***** DATA CARD NO.  6   RP   0     1     1  1000  8.50000E+01  9.00000E+01  0.00000E+00  0.00000E+00  0.00000E+00  0.00000E+00




                                 - - - - - - FREQUENCY - - - - - -

                                    FREQUENCY= 1.4420E+02 MHZ
                                    WAVELENGTH= 2.0791E+00 METERS




                    APPROXIMATE INTEGRATION EMPLOYED FOR SEGMENTS MORE THAN   1.000 WAVELENGTHS APART

                    THE EXTENDED THIN WIRE KERNEL WILL BE USED



                               - - - STRUCTURE IMPEDANCE LOADING - - -


       LOCATION          RESISTANCE   INDUCTANCE  CAPACITANCE       IMPEDANCE (OHMS)     CONDUCTIVITY    TYPE
    ITAG FROM THRU          OHMS        HENRYS       FARADS        REAL      IMAGINARY    MHOS/METER

     ALL                                                                                 5.8000E+07     WIRE  



                                  - - - ANTENNA ENVIRONMENT - - -

                                        FINITE GROUND.  SOMMERFELD SOLUTION
                                        RELATIVE DIELECTRIC CONST.= 11.000
                                        CONDUCTIVITY= 1.000E-02 MHOS/METER
                                        COMPLEX DIELECTRIC CONSTANT= 1.10000E+01-1.24660E+00



                                - - - MATRIX TIMING - - -

                        FILL=    0.031 SEC.,  FACTOR=    0.000 SEC.



                                          - - - ANTENNA INPUT PARAMETERS - - -

   TAG   SEG.    VOLTAGE (VOLTS)         CURRENT (AMPS)         IMPEDANCE (OHMS)        ADMITTANCE (MHOS)      POWER
   NO.   NO.    REAL        IMAG.       REAL        IMAG.       REAL        IMAG.       REAL        IMAG.     (WATTS)
   999    36 1.00000E+00 0.00000E+00 1.09548E-03-3.90288E-03 6.66652E+01 2.37509E+02 1.09548E-03-3.90288E-03 5.47739E-04



                             - - - CURRENTS AND LOCATION - - -

                                 DISTANCES IN WAVELENGTHS


  SEG.  TAG    COORD. OF SEG. CENTER     SEG.            - - - CURRENT (AMPS) - - -
  NO.   NO.     X        Y        Z      LENGTH     REAL        IMAG.       MAG.        PHASE
     1    1   0.0486   0.0041   3.9528  0.00823   6.1241E-04 -9.7092E-03  9.7285E-03  -86.391
     2    1   0.0471   0.0123   3.9528  0.00840   6.8991E-04 -1.0214E-02  1.0237E-02  -86.136
     3    1   0.0445   0.0202   3.9528  0.00840   7.5549E-04 -1.0612E-02  1.0639E-02  -85.928
     4    1   0.0404   0.0277   3.9528  0.00867   8.1545E-04 -1.0952E-02  1.0982E-02  -85.742
     5    1   0.0351   0.0342   3.9528  0.00816   8.6954E-04 -1.1237E-02  1.1271E-02  -85.575
     6    1   0.0286   0.0394   3.9528  0.00867   9.1952E-04 -1.1479E-02  1.1516E-02  -85.420
     7    1   0.0214   0.0438   3.9528  0.00818   9.6595E-04 -1.1683E-02  1.1723E-02  -85.274
     8    1   0.0137   0.0469   3.9528  0.00852   1.0087E-03 -1.1848E-02  1.1891E-02  -85.134
     9    1   0.0053   0.0486   3.9528  0.00871   1.0498E-03 -1.1982E-02  1.2028E-02  -84.993
    10    1  -0.0031   0.0488   3.9528  0.00819   1.0872E-03 -1.2078E-02  1.2127E-02  -84.857
    11    1  -0.0113   0.0476   3.9528  0.00840   1.1213E-03 -1.2140E-02  1.2192E-02  -84.723
    12    1  -0.0192   0.0450   3.9528  0.00840   1.1535E-03 -1.2170E-02  1.2225E-02  -84.586
    13    1  -0.0267   0.0409   3.9528  0.00867   1.1838E-03 -1.2168E-02  1.2225E-02  -84.443
    14    1  -0.0334   0.0356   3.9528  0.00851   1.2120E-03 -1.2133E-02  1.2193E-02  -84.295
    15    1  -0.0390   0.0293   3.9528  0.00828   1.2373E-03 -1.2067E-02  1.2130E-02  -84.145
    16    1  -0.0433   0.0224   3.9528  0.00818   1.2601E-03 -1.1973E-02  1.2039E-02  -83.992
    17    1  -0.0467   0.0147   3.9528  0.00867   1.2813E-03 -1.1846E-02  1.1915E-02  -83.827
    18    1  -0.0486   0.0065   3.9528  0.00823   1.3005E-03 -1.1689E-02  1.1761E-02  -83.651
    19    1  -0.0488  -0.0019   3.9528  0.00867   1.3175E-03 -1.1502E-02  1.1578E-02  -83.466
    20    1  -0.0479  -0.0103   3.9528  0.00830   1.3322E-03 -1.1286E-02  1.1364E-02  -83.268
    21    1  -0.0455  -0.0183   3.9528  0.00840   1.3445E-03 -1.1045E-02  1.1126E-02  -83.060
    22    1  -0.0416  -0.0257   3.9528  0.00841   1.3543E-03 -1.0774E-02  1.0859E-02  -82.836
    23    1  -0.0366  -0.0325   3.9528  0.00851   1.3616E-03 -1.0474E-02  1.0562E-02  -82.593
    24    1  -0.0303  -0.0382   3.9528  0.00856   1.3661E-03 -1.0144E-02  1.0236E-02  -82.330
    25    1  -0.0233  -0.0428   3.9528  0.00818   1.3675E-03 -9.7942E-03  9.8892E-03  -82.051
    26    1  -0.0159  -0.0462   3.9528  0.00822   1.3659E-03 -9.4268E-03  9.5252E-03  -81.756
    27    1  -0.0077  -0.0483   3.9528  0.00878   1.3609E-03 -9.0199E-03  9.1220E-03  -81.420
    28    1   0.0007  -0.0488   3.9528  0.00819   1.3522E-03 -8.5875E-03  8.6933E-03  -81.052
    29    1   0.0091  -0.0479   3.9528  0.00878   1.3394E-03 -8.1290E-03  8.2386E-03  -80.644
    30    1   0.0173  -0.0457   3.9528  0.00822   1.3223E-03 -7.6425E-03  7.7561E-03  -80.184
    31    1   0.0248  -0.0421   3.9528  0.00841   1.3012E-03 -7.1387E-03  7.2563E-03  -79.670
    32    1   0.0315  -0.0373   3.9528  0.00819   1.2751E-03 -6.6058E-03  6.7277E-03  -79.075
    33    1   0.0375  -0.0313   3.9528  0.00887   1.2425E-03 -6.0222E-03  6.1490E-03  -78.342
    34    1   0.0423  -0.0243   3.9528  0.00818   1.2033E-03 -5.3925E-03  5.5251E-03  -77.421
    35    1   0.0457  -0.0168   3.9528  0.00822   1.1572E-03 -4.7129E-03  4.8529E-03  -76.204
    36  999   0.0481  -0.0089   3.9528  0.00840   1.0955E-03 -3.9029E-03  4.0537E-03  -74.321
    37    2   0.0486   0.0041   3.8479  0.00823   1.0919E-03 -3.0124E-03  3.2042E-03  -70.075
    38    2   0.0471   0.0123   3.8479  0.00840   1.1533E-03 -3.6024E-03  3.7825E-03  -72.248
    39    2   0.0445   0.0202   3.8479  0.00840   1.1999E-03 -4.1178E-03  4.2890E-03  -73.754
    40    2   0.0404   0.0277   3.8479  0.00867   1.2386E-03 -4.6027E-03  4.7664E-03  -74.938
    41    2   0.0351   0.0342   3.8479  0.00816   1.2701E-03 -5.0526E-03  5.2098E-03  -75.889
    42    2   0.0286   0.0394   3.8479  0.00867   1.2962E-03 -5.4794E-03  5.6306E-03  -76.691
    43    2   0.0214   0.0438   3.8479  0.00818   1.3174E-03 -5.8855E-03  6.0311E-03  -77.383
    44    2   0.0137   0.0469   3.8479  0.00852   1.3340E-03 -6.2689E-03  6.4093E-03  -77.987
    45    2   0.0053   0.0486   3.8479  0.00871   1.3468E-03 -6.6451E-03  6.7802E-03  -78.542
    46    2  -0.0031   0.0488   3.8479  0.00819   1.3556E-03 -6.9947E-03  7.1249E-03  -79.032
    47    2  -0.0113   0.0476   3.8479  0.00840   1.3607E-03 -7.3194E-03  7.4448E-03  -79.469
    48    2  -0.0192   0.0450   3.8479  0.00840   1.3627E-03 -7.6292E-03  7.7499E-03  -79.873
    49    2  -0.0267   0.0409   3.8479  0.00867   1.3615E-03 -7.9239E-03  8.0401E-03  -80.250
    50    2  -0.0334   0.0356   3.8479  0.00851   1.3575E-03 -8.1997E-03  8.3113E-03  -80.600
    51    2  -0.0390   0.0293   3.8479  0.00828   1.3508E-03 -8.4487E-03  8.5560E-03  -80.917
    52    2  -0.0433   0.0224   3.8479  0.00818   1.3418E-03 -8.6722E-03  8.7754E-03  -81.205
    53    2  -0.0467   0.0147   3.8479  0.00867   1.3302E-03 -8.8799E-03  8.9790E-03  -81.481
    54    2  -0.0486   0.0065   3.8479  0.00823   1.3162E-03 -9.0664E-03  9.1615E-03  -81.740
    55    2  -0.0488  -0.0019   3.8479  0.00867   1.3000E-03 -9.2300E-03  9.3211E-03  -81.983
    56    2  -0.0479  -0.0103   3.8479  0.00830   1.2815E-03 -9.3706E-03  9.4578E-03  -82.213
    57    2  -0.0455  -0.0183   3.8479  0.00840   1.2611E-03 -9.4859E-03  9.5693E-03  -82.427
    58    2  -0.0416  -0.0257   3.8479  0.00841   1.2384E-03 -9.5777E-03  9.6574E-03  -82.632
    59    2  -0.0366  -0.0325   3.8479  0.00851   1.2133E-03 -9.6454E-03  9.7214E-03  -82.830
    60    2  -0.0303  -0.0382   3.8479  0.00856   1.1857E-03 -9.6878E-03  9.7601E-03  -83.022
    61    2  -0.0233  -0.0428   3.8479  0.00818   1.1563E-03 -9.7037E-03  9.7724E-03  -83.205
    62    2  -0.0159  -0.0462   3.8479  0.00822   1.1252E-03 -9.6941E-03  9.7591E-03  -83.379
    63    2  -0.0077  -0.0483   3.8479  0.00878   1.0903E-03 -9.6572E-03  9.7186E-03  -83.559
    64    2   0.0007  -0.0488   3.8479  0.00819   1.0527E-03 -9.5922E-03  9.6498E-03  -83.737
    65    2   0.0091  -0.0479   3.8479  0.00878   1.0122E-03 -9.4976E-03  9.5514E-03  -83.917
    66    2   0.0173  -0.0457   3.8479  0.00822   9.6837E-04 -9.3724E-03  9.4223E-03  -84.101
    67    2   0.0248  -0.0421   3.8479  0.00841   9.2218E-04 -9.2185E-03  9.2645E-03  -84.287
    68    2   0.0315  -0.0373   3.8479  0.00819   8.7241E-04 -9.0311E-03  9.0732E-03  -84.482
    69    2   0.0375  -0.0313   3.8479  0.00887   8.1700E-04 -8.7998E-03  8.8376E-03  -84.696
    70    2   0.0423  -0.0243   3.8479  0.00818   7.5648E-04 -8.5223E-03  8.5558E-03  -84.927
    71    2   0.0457  -0.0168   3.8479  0.00822   6.9183E-04 -8.1982E-03  8.2273E-03  -85.176
    72    2   0.0481  -0.0089   3.8479  0.00840   6.1389E-04 -7.7621E-03  7.7864E-03  -85.478
    73    3   0.0491   0.0000   3.8584  0.02097  -9.0721E-04  1.5154E-03  1.7662E-03  120.907
    74    3   0.0491   0.0000   3.8794  0.02097  -5.9212E-04 -9.2956E-04  1.1021E-03 -122.497
    75    3   0.0491   0.0000   3.9003  0.02097  -2.5898E-04 -3.4402E-03  3.4500E-03  -94.305
    76    3   0.0491   0.0000   3.9213  0.02097   7.9244E-05 -5.9215E-03  5.9220E-03  -89.233
    77    3   0.0491   0.0000   3.9423  0.02097   4.0966E-04 -8.2859E-03  8.2960E-03  -87.170
    78    4   0.0491  -0.0048   3.8584  0.02097   4.0984E-04 -6.4374E-03  6.4504E-03  -86.357
    79    4   0.0491  -0.0048   3.8794  0.02097   7.8722E-05 -4.2073E-03  4.2080E-03  -88.928
    80    4   0.0491  -0.0048   3.9003  0.02097  -2.6027E-04 -1.8801E-03  1.8980E-03  -97.882
    81    4   0.0491  -0.0048   3.9213  0.02097  -5.9413E-04  4.4367E-04  7.4151E-04  143.249
    82    4   0.0491  -0.0048   3.9423  0.02097  -9.0976E-04  2.6337E-03  2.7864E-03  109.057



                                        - - - POWER BUDGET - - -

                                           INPUT POWER   = 5.4774E-04 WATTS
                                           RADIATED POWER= 5.3647E-04 WATTS
                                           STRUCTURE LOSS= 1.1265E-05 WATTS
                                           NETWORK LOSS  = 0.0000E+00 WATTS
                                           EFFICIENCY    =  97.94 PERCENT



                                                - - - RADIATION PATTERNS - - -

  - - ANGLES - -           - POWER GAINS -       - - - POLARIZATION - - -    - - - E(THETA) - - -    - - - E(PHI) - - -
  THETA     PHI        VERT.   HOR.    TOTAL      AXIAL     TILT   SENSE     MAGNITUDE    PHASE      MAGNITUDE    PHASE 
 DEGREES  DEGREES       DB      DB      DB        RATIO     DEG.              VOLTS/M    DEGREES      VOLTS/M    DEGREES
   85.00    90.00      -2.02    3.26    4.39    0.54154   -86.80  RIGHT     1.43541E-01    98.63    2.63782E-01     4.47






 ***** DATA CARD NO.  7   EN   0     1     1  1000  8.50000E+01  9.00000E+01  0.00000E+00  0.00000E+00  0.00000E+00  0.00000E+00

 RUN TIME =     0.125
