1



                                 *********************************************

                                    NUMERICAL ELECTROMAGNETICS CODE (NEC-2D)

                                 *********************************************




                                     - - - - COMMENTS - - - -


                          No comments specified                                                      
                                                                                                     




                                 - - - STRUCTURE SPECIFICATION - - -

                                     COORDINATES MUST BE INPUT IN
                                     METERS OR BE SCALED TO METERS
                                     BEFORE STRUCTURE INPUT IS ENDED


  WIRE                                                                               NO. OF    FIRST  LAST     TAG
  NO.        X1         Y1         Z1          X2         Y2         Z2      RADIUS   SEG.     SEG.   SEG.     NO.
     1    0.09900    0.00000    0.20000     0.09800    0.01700    0.20000    0.00283      1        1     1       1
     2    0.09800    0.01700    0.20000     0.09400    0.03300    0.20000    0.00283      1        2     2       1
     3    0.09400    0.03300    0.20000     0.08600    0.04900    0.20000    0.00283      1        3     3       1
     4    0.08600    0.04900    0.20000     0.07700    0.06300    0.20000    0.00283      1        4     4       1
     5    0.07700    0.06300    0.20000     0.06500    0.07500    0.20000    0.00283      1        5     5       1
     6    0.06500    0.07500    0.20000     0.05100    0.08500    0.20000    0.00283      1        6     6       1
     7    0.05100    0.08500    0.20000     0.03600    0.09300    0.20000    0.00283      1        7     7       1
     8    0.03600    0.09300    0.20000     0.01900    0.09700    0.20000    0.00283      1        8     8       1
     9    0.01900    0.09700    0.20000     0.00200    0.09900    0.20000    0.00283      1        9     9       1
    10    0.00200    0.09900    0.20000    -0.01500    0.09800    0.20000    0.00283      1       10    10       1
    11   -0.01500    0.09800    0.20000    -0.03100    0.09400    0.20000    0.00283      1       11    11       1
    12   -0.03100    0.09400    0.20000    -0.04700    0.08800    0.20000    0.00283      1       12    12       1
    13   -0.04700    0.08800    0.20000    -0.06100    0.07800    0.20000    0.00283      1       13    13       1
    14   -0.06100    0.07800    0.20000    -0.07400    0.06700    0.20000    0.00283      1       14    14       1
    15   -0.07400    0.06700    0.20000    -0.08400    0.05300    0.20000    0.00283      1       15    15       1
    16   -0.08400    0.05300    0.20000    -0.09200    0.03800    0.20000    0.00283      1       16    16       1
    17   -0.09200    0.03800    0.20000    -0.09700    0.02200    0.20000    0.00283      1       17    17       1
    18   -0.09700    0.02200    0.20000    -0.09900    0.00500    0.20000    0.00283      1       18    18       1
    19   -0.09900    0.00500    0.20000    -0.09900   -0.01200    0.20000    0.00283      1       19    19       1
    20   -0.09900   -0.01200    0.20000    -0.09500   -0.02900    0.20000    0.00283      1       20    20       1
    21   -0.09500   -0.02900    0.20000    -0.08900   -0.04500    0.20000    0.00283      1       21    21       1
    22   -0.08900   -0.04500    0.20000    -0.08000   -0.05900    0.20000    0.00283      1       22    22       1
    23   -0.08000   -0.05900    0.20000    -0.06800   -0.07200    0.20000    0.00283      1       23    23       1
    24   -0.06800   -0.07200    0.20000    -0.05500   -0.08300    0.20000    0.00283      1       24    24       1
    25   -0.05500   -0.08300    0.20000    -0.04000   -0.09100    0.20000    0.00283      1       25    25       1
    26   -0.04000   -0.09100    0.20000    -0.02400   -0.09600    0.20000    0.00283      1       26    26       1
    27   -0.02400   -0.09600    0.20000    -0.00700   -0.09900    0.20000    0.00283      1       27    27       1
    28   -0.00700   -0.09900    0.20000     0.01000   -0.09900    0.20000    0.00283      1       28    28       1
    29    0.01000   -0.09900    0.20000     0.02700   -0.09600    0.20000    0.00283      1       29    29       1
    30    0.02700   -0.09600    0.20000     0.04300   -0.09000    0.20000    0.00283      1       30    30       1
    31    0.04300   -0.09000    0.20000     0.05700   -0.08100    0.20000    0.00283      1       31    31       1
    32    0.05700   -0.08100    0.20000     0.07000   -0.07000    0.20000    0.00283      1       32    32       1
    33    0.07000   -0.07000    0.20000     0.08100   -0.05700    0.20000    0.00283      1       33    33       1
    34    0.08100   -0.05700    0.20000     0.09000   -0.04200    0.20000    0.00283      1       34    34       1
    35    0.09000   -0.04200    0.20000     0.09600   -0.02600    0.20000    0.00283      1       35    35       1
    36    0.09600   -0.02600    0.20000     0.09900   -0.01000    0.20000    0.00283      1       36    36     999
    37    0.09900    0.00000    0.00000     0.09800    0.01700    0.00000    0.00283      1       37    37       2
    38    0.09800    0.01700    0.00000     0.09400    0.03300    0.00000    0.00283      1       38    38       2
    39    0.09400    0.03300    0.00000     0.08600    0.04900    0.00000    0.00283      1       39    39       2
    40    0.08600    0.04900    0.00000     0.07700    0.06300    0.00000    0.00283      1       40    40       2
    41    0.07700    0.06300    0.00000     0.06500    0.07500    0.00000    0.00283      1       41    41       2
    42    0.06500    0.07500    0.00000     0.05100    0.08500    0.00000    0.00283      1       42    42       2
    43    0.05100    0.08500    0.00000     0.03600    0.09300    0.00000    0.00283      1       43    43       2
    44    0.03600    0.09300    0.00000     0.01900    0.09700    0.00000    0.00283      1       44    44       2
    45    0.01900    0.09700    0.00000     0.00200    0.09900    0.00000    0.00283      1       45    45       2
    46    0.00200    0.09900    0.00000    -0.01500    0.09800    0.00000    0.00283      1       46    46       2
    47   -0.01500    0.09800    0.00000    -0.03100    0.09400    0.00000    0.00283      1       47    47       2
    48   -0.03100    0.09400    0.00000    -0.04700    0.08800    0.00000    0.00283      1       48    48       2
    49   -0.04700    0.08800    0.00000    -0.06100    0.07800    0.00000    0.00283      1       49    49       2
    50   -0.06100    0.07800    0.00000    -0.07400    0.06700    0.00000    0.00283      1       50    50       2
    51   -0.07400    0.06700    0.00000    -0.08400    0.05300    0.00000    0.00283      1       51    51       2
    52   -0.08400    0.05300    0.00000    -0.09200    0.03800    0.00000    0.00283      1       52    52       2
    53   -0.09200    0.03800    0.00000    -0.09700    0.02200    0.00000    0.00283      1       53    53       2
    54   -0.09700    0.02200    0.00000    -0.09900    0.00500    0.00000    0.00283      1       54    54       2
    55   -0.09900    0.00500    0.00000    -0.09900   -0.01200    0.00000    0.00283      1       55    55       2
    56   -0.09900   -0.01200    0.00000    -0.09500   -0.02900    0.00000    0.00283      1       56    56       2
    57   -0.09500   -0.02900    0.00000    -0.08900   -0.04500    0.00000    0.00283      1       57    57       2
    58   -0.08900   -0.04500    0.00000    -0.08000   -0.05900    0.00000    0.00283      1       58    58       2
    59   -0.08000   -0.05900    0.00000    -0.06800   -0.07200    0.00000    0.00283      1       59    59       2
    60   -0.06800   -0.07200    0.00000    -0.05500   -0.08300    0.00000    0.00283      1       60    60       2
    61   -0.05500   -0.08300    0.00000    -0.04000   -0.09100    0.00000    0.00283      1       61    61       2
    62   -0.04000   -0.09100    0.00000    -0.02400   -0.09600    0.00000    0.00283      1       62    62       2
    63   -0.02400   -0.09600    0.00000    -0.00700   -0.09900    0.00000    0.00283      1       63    63       2
    64   -0.00700   -0.09900    0.00000     0.01000   -0.09900    0.00000    0.00283      1       64    64       2
    65    0.01000   -0.09900    0.00000     0.02700   -0.09600    0.00000    0.00283      1       65    65       2
    66    0.02700   -0.09600    0.00000     0.04300   -0.09000    0.00000    0.00283      1       66    66       2
    67    0.04300   -0.09000    0.00000     0.05700   -0.08100    0.00000    0.00283      1       67    67       2
    68    0.05700   -0.08100    0.00000     0.07000   -0.07000    0.00000    0.00283      1       68    68       2
    69    0.07000   -0.07000    0.00000     0.08100   -0.05700    0.00000    0.00283      1       69    69       2
    70    0.08100   -0.05700    0.00000     0.09000   -0.04200    0.00000    0.00283      1       70    70       2
    71    0.09000   -0.04200    0.00000     0.09600   -0.02600    0.00000    0.00283      1       71    71       2
    72    0.09600   -0.02600    0.00000     0.09900   -0.01000    0.00000    0.00283      1       72    72       2
    73    0.09900    0.00000    0.00000     0.09900    0.00000    0.20000    0.00283      4       73    76       3
    74    0.09900   -0.01000    0.00000     0.09900   -0.01000    0.20000    0.00283      4       77    80       4
      THE STRUCTURE HAS BEEN MOVED, MOVE DATA CARD IS -
        0    0   0.00000   0.00000   0.00000   0.00000   0.00000   8.00000   0.00000

   GROUND PLANE SPECIFIED.

   WHERE WIRE ENDS TOUCH GROUND, CURRENT WILL BE INTERPOLATED TO IMAGE IN GROUND PLANE.


   TOTAL SEGMENTS USED=   80     NO. SEG. IN A SYMMETRIC CELL=   80     SYMMETRY FLAG=  0


         - MULTIPLE WIRE JUNCTIONS -
 JUNCTION    SEGMENTS  (- FOR END 1, + FOR END 2)
  NONE




                                 - - - - SEGMENTATION DATA - - - -

                                        COORDINATES IN METERS

                         I+ AND I- INDICATE THE SEGMENTS BEFORE AND AFTER I


  SEG.   COORDINATES OF SEG. CENTER     SEG.     ORIENTATION ANGLES    WIRE    CONNECTION DATA   TAG
  NO.       X         Y         Z       LENGTH     ALPHA     BETA      RADIUS    I-   I    I+    NO.
     1   0.09850   0.00850   8.20000   0.01703    0.00000  93.36646   0.00283    76    1    2      1
     2   0.09600   0.02500   8.20000   0.01649    0.00000 104.03624   0.00283     1    2    3      1
     3   0.09000   0.04100   8.20000   0.01789    0.00000 116.56505   0.00283     2    3    4      1
     4   0.08150   0.05600   8.20000   0.01664    0.00000 122.73523   0.00283     3    4    5      1
     5   0.07100   0.06900   8.20000   0.01697    0.00000 135.00000   0.00283     4    5    6      1
     6   0.05800   0.08000   8.20000   0.01720    0.00000 144.46232   0.00283     5    6    7      1
     7   0.04350   0.08900   8.20000   0.01700    0.00000 151.92751   0.00283     6    7    8      1
     8   0.02750   0.09500   8.20000   0.01746    0.00000 166.75948   0.00283     7    8    9      1
     9   0.01050   0.09800   8.20000   0.01712    0.00000 173.29016   0.00283     8    9   10      1
    10  -0.00650   0.09850   8.20000   0.01703    0.00000-176.63354   0.00283     9   10   11      1
    11  -0.02300   0.09600   8.20000   0.01649    0.00000-165.96376   0.00283    10   11   12      1
    12  -0.03900   0.09100   8.20000   0.01709    0.00000-159.44395   0.00283    11   12   13      1
    13  -0.05400   0.08300   8.20000   0.01720    0.00000-144.46232   0.00283    12   13   14      1
    14  -0.06750   0.07250   8.20000   0.01703    0.00000-139.76364   0.00283    13   14   15      1
    15  -0.07900   0.06000   8.20000   0.01720    0.00000-125.53768   0.00283    14   15   16      1
    16  -0.08800   0.04550   8.20000   0.01700    0.00000-118.07249   0.00283    15   16   17      1
    17  -0.09450   0.03000   8.20000   0.01676    0.00000-107.35402   0.00283    16   17   18      1
    18  -0.09800   0.01350   8.20000   0.01712    0.00000 -96.70984   0.00283    17   18   19      1
    19  -0.09900  -0.00350   8.20000   0.01700    0.00000 -90.00000   0.00283    18   19   20      1
    20  -0.09700  -0.02050   8.20000   0.01746    0.00000 -76.75948   0.00283    19   20   21      1
    21  -0.09200  -0.03700   8.20000   0.01709    0.00000 -69.44395   0.00283    20   21   22      1
    22  -0.08450  -0.05200   8.20000   0.01664    0.00000 -57.26477   0.00283    21   22   23      1
    23  -0.07400  -0.06550   8.20000   0.01769    0.00000 -47.29061   0.00283    22   23   24      1
    24  -0.06150  -0.07750   8.20000   0.01703    0.00000 -40.23636   0.00283    23   24   25      1
    25  -0.04750  -0.08700   8.20000   0.01700    0.00000 -28.07249   0.00283    24   25   26      1
    26  -0.03200  -0.09350   8.20000   0.01676    0.00000 -17.35402   0.00283    25   26   27      1
    27  -0.01550  -0.09750   8.20000   0.01726    0.00000 -10.00798   0.00283    26   27   28      1
    28   0.00150  -0.09900   8.20000   0.01700    0.00000   0.00000   0.00283    27   28   29      1
    29   0.01850  -0.09750   8.20000   0.01726    0.00000  10.00798   0.00283    28   29   30      1
    30   0.03500  -0.09300   8.20000   0.01709    0.00000  20.55605   0.00283    29   30   31      1
    31   0.05000  -0.08550   8.20000   0.01664    0.00000  32.73523   0.00283    30   31   32      1
    32   0.06350  -0.07550   8.20000   0.01703    0.00000  40.23636   0.00283    31   32   33      1
    33   0.07550  -0.06350   8.20000   0.01703    0.00000  49.76364   0.00283    32   33   34      1
    34   0.08550  -0.04950   8.20000   0.01749    0.00000  59.03624   0.00283    33   34   35      1
    35   0.09300  -0.03400   8.20000   0.01709    0.00000  69.44395   0.00283    34   35   36      1
    36   0.09750  -0.01800   8.20000   0.01628    0.00000  79.38034   0.00283    35   36  -80    999
    37   0.09850   0.00850   8.00000   0.01703    0.00000  93.36646   0.00283   -73   37   38      2
    38   0.09600   0.02500   8.00000   0.01649    0.00000 104.03624   0.00283    37   38   39      2
    39   0.09000   0.04100   8.00000   0.01789    0.00000 116.56505   0.00283    38   39   40      2
    40   0.08150   0.05600   8.00000   0.01664    0.00000 122.73523   0.00283    39   40   41      2
    41   0.07100   0.06900   8.00000   0.01697    0.00000 135.00000   0.00283    40   41   42      2
    42   0.05800   0.08000   8.00000   0.01720    0.00000 144.46232   0.00283    41   42   43      2
    43   0.04350   0.08900   8.00000   0.01700    0.00000 151.92751   0.00283    42   43   44      2
    44   0.02750   0.09500   8.00000   0.01746    0.00000 166.75948   0.00283    43   44   45      2
    45   0.01050   0.09800   8.00000   0.01712    0.00000 173.29016   0.00283    44   45   46      2
    46  -0.00650   0.09850   8.00000   0.01703    0.00000-176.63354   0.00283    45   46   47      2
    47  -0.02300   0.09600   8.00000   0.01649    0.00000-165.96376   0.00283    46   47   48      2
    48  -0.03900   0.09100   8.00000   0.01709    0.00000-159.44395   0.00283    47   48   49      2
    49  -0.05400   0.08300   8.00000   0.01720    0.00000-144.46232   0.00283    48   49   50      2
    50  -0.06750   0.07250   8.00000   0.01703    0.00000-139.76364   0.00283    49   50   51      2
    51  -0.07900   0.06000   8.00000   0.01720    0.00000-125.53768   0.00283    50   51   52      2
    52  -0.08800   0.04550   8.00000   0.01700    0.00000-118.07249   0.00283    51   52   53      2
    53  -0.09450   0.03000   8.00000   0.01676    0.00000-107.35402   0.00283    52   53   54      2
    54  -0.09800   0.01350   8.00000   0.01712    0.00000 -96.70984   0.00283    53   54   55      2
    55  -0.09900  -0.00350   8.00000   0.01700    0.00000 -90.00000   0.00283    54   55   56      2
    56  -0.09700  -0.02050   8.00000   0.01746    0.00000 -76.75948   0.00283    55   56   57      2
    57  -0.09200  -0.03700   8.00000   0.01709    0.00000 -69.44395   0.00283    56   57   58      2
    58  -0.08450  -0.05200   8.00000   0.01664    0.00000 -57.26477   0.00283    57   58   59      2
    59  -0.07400  -0.06550   8.00000   0.01769    0.00000 -47.29061   0.00283    58   59   60      2
    60  -0.06150  -0.07750   8.00000   0.01703    0.00000 -40.23636   0.00283    59   60   61      2
    61  -0.04750  -0.08700   8.00000   0.01700    0.00000 -28.07249   0.00283    60   61   62      2
    62  -0.03200  -0.09350   8.00000   0.01676    0.00000 -17.35402   0.00283    61   62   63      2
    63  -0.01550  -0.09750   8.00000   0.01726    0.00000 -10.00798   0.00283    62   63   64      2
    64   0.00150  -0.09900   8.00000   0.01700    0.00000   0.00000   0.00283    63   64   65      2
    65   0.01850  -0.09750   8.00000   0.01726    0.00000  10.00798   0.00283    64   65   66      2
    66   0.03500  -0.09300   8.00000   0.01709    0.00000  20.55605   0.00283    65   66   67      2
    67   0.05000  -0.08550   8.00000   0.01664    0.00000  32.73523   0.00283    66   67   68      2
    68   0.06350  -0.07550   8.00000   0.01703    0.00000  40.23636   0.00283    67   68   69      2
    69   0.07550  -0.06350   8.00000   0.01703    0.00000  49.76364   0.00283    68   69   70      2
    70   0.08550  -0.04950   8.00000   0.01749    0.00000  59.03624   0.00283    69   70   71      2
    71   0.09300  -0.03400   8.00000   0.01709    0.00000  69.44395   0.00283    70   71   72      2
    72   0.09750  -0.01800   8.00000   0.01628    0.00000  79.38034   0.00283    71   72   77      2
    73   0.09900   0.00000   8.02500   0.05000   90.00000   0.00000   0.00283   -37   73   74      3
    74   0.09900   0.00000   8.07500   0.05000   90.00000   0.00000   0.00283    73   74   75      3
    75   0.09900   0.00000   8.12500   0.05000   90.00000   0.00000   0.00283    74   75   76      3
    76   0.09900   0.00000   8.17500   0.05000   90.00000   0.00000   0.00283    75   76    1      3
    77   0.09900  -0.01000   8.02500   0.05000   90.00000   0.00000   0.00283    72   77   78      4
    78   0.09900  -0.01000   8.07500   0.05000   90.00000   0.00000   0.00283    77   78   79      4
    79   0.09900  -0.01000   8.12500   0.05000   90.00000   0.00000   0.00283    78   79   80      4
    80   0.09900  -0.01000   8.17500   0.05000   90.00000   0.00000   0.00283    79   80  -36      4






 ***** DATA CARD NO.  1   GN   2     0     0     0  1.10000E+01  1.00000E-02  0.00000E+00  0.00000E+00  0.00000E+00  0.00000E+00
 ***** DATA CARD NO.  2   EK   0     0     0     0  0.00000E+00  0.00000E+00  0.00000E+00  0.00000E+00  0.00000E+00  0.00000E+00
 ***** DATA CARD NO.  3   LD   5     0     0     0  5.80000E+07  0.00000E+00  0.00000E+00  0.00000E+00  0.00000E+00  0.00000E+00
 ***** DATA CARD NO.  4   EX   0   999     1     0  1.00000E+00  0.00000E+00  0.00000E+00  0.00000E+00  0.00000E+00  0.00000E+00
 ***** DATA CARD NO.  5   FR   0     1     0     0  1.44200E+02  0.00000E+00  0.00000E+00  0.00000E+00  0.00000E+00  0.00000E+00
 ***** DATA CARD NO.  6   RP   0     1     1  1000  8.50000E+01  9.00000E+01  0.00000E+00  0.00000E+00  0.00000E+00  0.00000E+00




                                 - - - - - - FREQUENCY - - - - - -

                                    FREQUENCY= 1.4420E+02 MHZ
                                    WAVELENGTH= 2.0791E+00 METERS




                    APPROXIMATE INTEGRATION EMPLOYED FOR SEGMENTS MORE THAN   1.000 WAVELENGTHS APART

                    THE EXTENDED THIN WIRE KERNEL WILL BE USED



                               - - - STRUCTURE IMPEDANCE LOADING - - -


       LOCATION          RESISTANCE   INDUCTANCE  CAPACITANCE       IMPEDANCE (OHMS)     CONDUCTIVITY    TYPE
    ITAG FROM THRU          OHMS        HENRYS       FARADS        REAL      IMAGINARY    MHOS/METER

     ALL                                                                                 5.8000E+07     WIRE  



                                  - - - ANTENNA ENVIRONMENT - - -

                                        FINITE GROUND.  SOMMERFELD SOLUTION
                                        RELATIVE DIELECTRIC CONST.= 11.000
                                        CONDUCTIVITY= 1.000E-02 MHOS/METER
                                        COMPLEX DIELECTRIC CONSTANT= 1.10000E+01-1.24660E+00



                                - - - MATRIX TIMING - - -

                        FILL=    0.016 SEC.,  FACTOR=    0.000 SEC.



                                          - - - ANTENNA INPUT PARAMETERS - - -

   TAG   SEG.    VOLTAGE (VOLTS)         CURRENT (AMPS)         IMPEDANCE (OHMS)        ADMITTANCE (MHOS)      POWER
   NO.   NO.    REAL        IMAG.       REAL        IMAG.       REAL        IMAG.       REAL        IMAG.     (WATTS)
   999    36 1.00000E+00 0.00000E+00 5.31909E-02-5.49602E-03 1.86016E+01 1.92204E+00 5.31909E-02-5.49602E-03 2.65954E-02



                             - - - CURRENTS AND LOCATION - - -

                                 DISTANCES IN WAVELENGTHS


  SEG.  TAG    COORD. OF SEG. CENTER     SEG.            - - - CURRENT (AMPS) - - -
  NO.   NO.     X        Y        Z      LENGTH     REAL        IMAG.       MAG.        PHASE
     1    1   0.0474   0.0041   3.9441  0.00819   5.2891E-02 -1.0724E-02  5.3967E-02  -11.462
     2    1   0.0462   0.0120   3.9441  0.00793   5.7498E-02 -1.1378E-02  5.8613E-02  -11.193
     3    1   0.0433   0.0197   3.9441  0.00860   6.1344E-02 -1.1917E-02  6.2491E-02  -10.993
     4    1   0.0392   0.0269   3.9441  0.00801   6.4765E-02 -1.2390E-02  6.5940E-02  -10.830
     5    1   0.0342   0.0332   3.9441  0.00816   6.7764E-02 -1.2798E-02  6.8962E-02  -10.695
     6    1   0.0279   0.0385   3.9441  0.00828   7.0535E-02 -1.3167E-02  7.1754E-02  -10.574
     7    1   0.0209   0.0428   3.9441  0.00818   7.3057E-02 -1.3495E-02  7.4293E-02  -10.465
     8    1   0.0132   0.0457   3.9441  0.00840   7.5361E-02 -1.3784E-02  7.6611E-02  -10.365
     9    1   0.0051   0.0471   3.9441  0.00823   7.7446E-02 -1.4034E-02  7.8708E-02  -10.271
    10    1  -0.0031   0.0474   3.9441  0.00819   7.9291E-02 -1.4242E-02  8.0560E-02  -10.182
    11    1  -0.0111   0.0462   3.9441  0.00793   8.0898E-02 -1.4407E-02  8.2171E-02  -10.098
    12    1  -0.0188   0.0438   3.9441  0.00822   8.2308E-02 -1.4534E-02  8.3581E-02  -10.014
    13    1  -0.0260   0.0399   3.9441  0.00828   8.3543E-02 -1.4623E-02  8.4813E-02   -9.928
    14    1  -0.0325   0.0349   3.9441  0.00819   8.4571E-02 -1.4670E-02  8.5834E-02   -9.841
    15    1  -0.0380   0.0289   3.9441  0.00828   8.5395E-02 -1.4675E-02  8.6647E-02   -9.751
    16    1  -0.0423   0.0219   3.9441  0.00818   8.6015E-02 -1.4638E-02  8.7251E-02   -9.658
    17    1  -0.0455   0.0144   3.9441  0.00806   8.6427E-02 -1.4560E-02  8.7645E-02   -9.563
    18    1  -0.0471   0.0065   3.9441  0.00823   8.6642E-02 -1.4441E-02  8.7837E-02   -9.462
    19    1  -0.0476  -0.0017   3.9441  0.00818   8.6657E-02 -1.4278E-02  8.7826E-02   -9.356
    20    1  -0.0467  -0.0099   3.9441  0.00840   8.6467E-02 -1.4072E-02  8.7605E-02   -9.243
    21    1  -0.0443  -0.0178   3.9441  0.00822   8.6069E-02 -1.3823E-02  8.7172E-02   -9.124
    22    1  -0.0406  -0.0250   3.9441  0.00801   8.5481E-02 -1.3540E-02  8.6546E-02   -9.001
    23    1  -0.0356  -0.0315   3.9441  0.00851   8.4677E-02 -1.3212E-02  8.5702E-02   -8.868
    24    1  -0.0296  -0.0373   3.9441  0.00819   8.3656E-02 -1.2842E-02  8.4636E-02   -8.728
    25    1  -0.0228  -0.0418   3.9441  0.00818   8.2450E-02 -1.2442E-02  8.3384E-02   -8.582
    26    1  -0.0154  -0.0450   3.9441  0.00806   8.1052E-02 -1.2010E-02  8.1937E-02   -8.429
    27    1  -0.0075  -0.0469   3.9441  0.00830   7.9438E-02 -1.1542E-02  8.0272E-02   -8.267
    28    1   0.0007  -0.0476   3.9441  0.00818   7.7601E-02 -1.1036E-02  7.8382E-02   -8.094
    29    1   0.0089  -0.0469   3.9441  0.00830   7.5548E-02 -1.0497E-02  7.6274E-02   -7.910
    30    1   0.0168  -0.0447   3.9441  0.00822   7.3265E-02 -9.9232E-03  7.3934E-02   -7.713
    31    1   0.0240  -0.0411   3.9441  0.00801   7.0793E-02 -9.3270E-03  7.1405E-02   -7.506
    32    1   0.0305  -0.0363   3.9441  0.00819   6.8078E-02 -8.6975E-03  6.8632E-02   -7.281
    33    1   0.0363  -0.0305   3.9441  0.00819   6.5053E-02 -8.0201E-03  6.5545E-02   -7.028
    34    1   0.0411  -0.0238   3.9441  0.00841   6.1644E-02 -7.2804E-03  6.2073E-02   -6.736
    35    1   0.0447  -0.0164   3.9441  0.00822   5.7778E-02 -6.4507E-03  5.8137E-02   -6.370
    36  999   0.0469  -0.0087   3.9441  0.00783   5.3191E-02 -5.4960E-03  5.3474E-02   -5.899
    37    2   0.0474   0.0041   3.8479  0.00819   5.3186E-02 -4.4390E-03  5.3370E-02   -4.771
    38    2   0.0462   0.0120   3.8479  0.00793   5.7782E-02 -5.1581E-03  5.8012E-02   -5.101
    39    2   0.0433   0.0197   3.8479  0.00860   6.1617E-02 -5.7927E-03  6.1888E-02   -5.371
    40    2   0.0392   0.0269   3.8479  0.00801   6.5025E-02 -6.3835E-03  6.5337E-02   -5.607
    41    2   0.0342   0.0332   3.8479  0.00816   6.8010E-02 -6.9256E-03  6.8361E-02   -5.815
    42    2   0.0279   0.0385   3.8479  0.00828   7.0766E-02 -7.4491E-03  7.1157E-02   -6.009
    43    2   0.0209   0.0428   3.8479  0.00818   7.3273E-02 -7.9476E-03  7.3702E-02   -6.190
    44    2   0.0132   0.0457   3.8479  0.00840   7.5560E-02 -8.4255E-03  7.6028E-02   -6.363
    45    2   0.0051   0.0471   3.8479  0.00823   7.7629E-02 -8.8792E-03  7.8135E-02   -6.525
    46    2  -0.0031   0.0474   3.8479  0.00819   7.9456E-02 -9.3021E-03  7.9999E-02   -6.677
    47    2  -0.0111   0.0462   3.8479  0.00793   8.1046E-02 -9.6917E-03  8.1623E-02   -6.819
    48    2  -0.0188   0.0438   3.8479  0.00822   8.2438E-02 -1.0055E-02  8.3049E-02   -6.954
    49    2  -0.0260   0.0399   3.8479  0.00828   8.3654E-02 -1.0398E-02  8.4297E-02   -7.085
    50    2  -0.0325   0.0349   3.8479  0.00819   8.4662E-02 -1.0709E-02  8.5337E-02   -7.209
    51    2  -0.0380   0.0289   3.8479  0.00828   8.5467E-02 -1.0989E-02  8.6170E-02   -7.327
    52    2  -0.0423   0.0219   3.8479  0.00818   8.6067E-02 -1.1236E-02  8.6797E-02   -7.438
    53    2  -0.0455   0.0144   3.8479  0.00806   8.6459E-02 -1.1446E-02  8.7214E-02   -7.542
    54    2  -0.0471   0.0065   3.8479  0.00823   8.6654E-02 -1.1623E-02  8.7430E-02   -7.640
    55    2  -0.0476  -0.0017   3.8479  0.00818   8.6649E-02 -1.1767E-02  8.7444E-02   -7.733
    56    2  -0.0467  -0.0099   3.8479  0.00840   8.6438E-02 -1.1875E-02  8.7250E-02   -7.823
    57    2  -0.0443  -0.0178   3.8479  0.00822   8.6020E-02 -1.1948E-02  8.6846E-02   -7.907
    58    2  -0.0406  -0.0250   3.8479  0.00801   8.5411E-02 -1.1983E-02  8.6247E-02   -7.986
    59    2  -0.0356  -0.0315   3.8479  0.00851   8.4587E-02 -1.1982E-02  8.5432E-02   -8.063
    60    2  -0.0296  -0.0373   3.8479  0.00819   8.3546E-02 -1.1945E-02  8.4396E-02   -8.137
    61    2  -0.0228  -0.0418   3.8479  0.00818   8.2321E-02 -1.1874E-02  8.3173E-02   -8.208
    62    2  -0.0154  -0.0450   3.8479  0.00806   8.0903E-02 -1.1769E-02  8.1755E-02   -8.277
    63    2  -0.0075  -0.0469   3.8479  0.00830   7.9270E-02 -1.1630E-02  8.0119E-02   -8.347
    64    2   0.0007  -0.0476   3.8479  0.00818   7.7416E-02 -1.1456E-02  7.8259E-02   -8.417
    65    2   0.0089  -0.0469   3.8479  0.00830   7.5345E-02 -1.1248E-02  7.6180E-02   -8.491
    66    2   0.0168  -0.0447   3.8479  0.00822   7.3045E-02 -1.1004E-02  7.3869E-02   -8.567
    67    2   0.0240  -0.0411   3.8479  0.00801   7.0557E-02 -1.0731E-02  7.1368E-02   -8.648
    68    2   0.0305  -0.0363   3.8479  0.00819   6.7827E-02 -1.0422E-02  6.8623E-02   -8.736
    69    2   0.0363  -0.0305   3.8479  0.00819   6.4787E-02 -1.0069E-02  6.5565E-02   -8.834
    70    2   0.0411  -0.0238   3.8479  0.00841   6.1365E-02 -9.6620E-03  6.2121E-02   -8.948
    71    2   0.0447  -0.0164   3.8479  0.00822   5.7486E-02 -9.1884E-03  5.8216E-02   -9.081
    72    2   0.0469  -0.0087   3.8479  0.00783   5.2889E-02 -8.6059E-03  5.3585E-02   -9.242
    73    3   0.0476   0.0000   3.8599  0.02405  -3.8439E-02  2.2895E-03  3.8508E-02  176.591
    74    3   0.0476   0.0000   3.8840  0.02405  -1.3177E-02 -1.3439E-03  1.3245E-02 -174.177
    75    3   0.0476   0.0000   3.9080  0.02405   1.2860E-02 -5.0530E-03  1.3817E-02  -21.450
    76    3   0.0476   0.0000   3.9321  0.02405   3.8132E-02 -8.6278E-03  3.9096E-02  -12.749
    77    4   0.0476  -0.0048   3.8599  0.02405   3.8216E-02 -6.6415E-03  3.8789E-02   -9.859
    78    4   0.0476  -0.0048   3.8840  0.02405   1.2883E-02 -3.2277E-03  1.3282E-02  -14.065
    79    4   0.0476  -0.0048   3.9080  0.02405  -1.3208E-02  2.8271E-04  1.3211E-02  178.774
    80    4   0.0476  -0.0048   3.9321  0.02405  -3.8530E-02  3.6319E-03  3.8701E-02  174.615



                                        - - - POWER BUDGET - - -

                                           INPUT POWER   = 2.6595E-02 WATTS
                                           RADIATED POWER= 2.5924E-02 WATTS
                                           STRUCTURE LOSS= 6.7107E-04 WATTS
                                           NETWORK LOSS  = 0.0000E+00 WATTS
                                           EFFICIENCY    =  97.48 PERCENT



                                                - - - RADIATION PATTERNS - - -

  - - ANGLES - -           - POWER GAINS -       - - - POLARIZATION - - -    - - - E(THETA) - - -    - - - E(PHI) - - -
  THETA     PHI        VERT.   HOR.    TOTAL      AXIAL     TILT   SENSE     MAGNITUDE    PHASE      MAGNITUDE    PHASE 
 DEGREES  DEGREES       DB      DB      DB        RATIO     DEG.              VOLTS/M    DEGREES      VOLTS/M    DEGREES
   85.00    90.00     -24.27    4.50    4.50    0.02947    88.77  RIGHT     7.71981E-02   134.89    2.11973E+00    80.83






 ***** DATA CARD NO.  7   EN   0     1     1  1000  8.50000E+01  9.00000E+01  0.00000E+00  0.00000E+00  0.00000E+00  0.00000E+00

 RUN TIME =     0.094
