1



                                 *********************************************

                                    NUMERICAL ELECTROMAGNETICS CODE (NEC-2D)

                                 *********************************************




                                     - - - - COMMENTS - - - -


                          No comments specified                                                      
                                                                                                     




                                 - - - STRUCTURE SPECIFICATION - - -

                                     COORDINATES MUST BE INPUT IN
                                     METERS OR BE SCALED TO METERS
                                     BEFORE STRUCTURE INPUT IS ENDED


  WIRE                                                                               NO. OF    FIRST  LAST     TAG
  NO.        X1         Y1         Z1          X2         Y2         Z2      RADIUS   SEG.     SEG.   SEG.     NO.
     1    0.10700    0.00000    0.25600     0.10600    0.01800    0.25600    0.00254      1        1     1       1
     2    0.10600    0.01800    0.25600     0.10100    0.03600    0.25600    0.00254      1        2     2       1
     3    0.10100    0.03600    0.25600     0.09300    0.05300    0.25600    0.00254      1        3     3       1
     4    0.09300    0.05300    0.25600     0.08300    0.06800    0.25600    0.00254      1        4     4       1
     5    0.08300    0.06800    0.25600     0.07000    0.08100    0.25600    0.00254      1        5     5       1
     6    0.07000    0.08100    0.25600     0.05500    0.09200    0.25600    0.00254      1        6     6       1
     7    0.05500    0.09200    0.25600     0.03900    0.10000    0.25600    0.00254      1        7     7       1
     8    0.03900    0.10000    0.25600     0.02100    0.10500    0.25600    0.00254      1        8     8       1
     9    0.02100    0.10500    0.25600     0.00300    0.10700    0.25600    0.00254      1        9     9       1
    10    0.00300    0.10700    0.25600    -0.01600    0.10600    0.25600    0.00254      1       10    10       1
    11   -0.01600    0.10600    0.25600    -0.03400    0.10200    0.25600    0.00254      1       11    11       1
    12   -0.03400    0.10200    0.25600    -0.05100    0.09500    0.25600    0.00254      1       12    12       1
    13   -0.05100    0.09500    0.25600    -0.06600    0.08400    0.25600    0.00254      1       13    13       1
    14   -0.06600    0.08400    0.25600    -0.08000    0.07200    0.25600    0.00254      1       14    14       1
    15   -0.08000    0.07200    0.25600    -0.09100    0.05700    0.25600    0.00254      1       15    15       1
    16   -0.09100    0.05700    0.25600    -0.09900    0.04100    0.25600    0.00254      1       16    16       1
    17   -0.09900    0.04100    0.25600    -0.10500    0.02300    0.25600    0.00254      1       17    17       1
    18   -0.10500    0.02300    0.25600    -0.10700    0.00500    0.25600    0.00254      1       18    18       1
    19   -0.10700    0.00500    0.25600    -0.10600   -0.01300    0.25600    0.00254      1       19    19       1
    20   -0.10600   -0.01300    0.25600    -0.10300   -0.03100    0.25600    0.00254      1       20    20       1
    21   -0.10300   -0.03100    0.25600    -0.09600   -0.04900    0.25600    0.00254      1       21    21       1
    22   -0.09600   -0.04900    0.25600    -0.08600   -0.06400    0.25600    0.00254      1       22    22       1
    23   -0.08600   -0.06400    0.25600    -0.07400   -0.07800    0.25600    0.00254      1       23    23       1
    24   -0.07400   -0.07800    0.25600    -0.05900   -0.08900    0.25600    0.00254      1       24    24       1
    25   -0.05900   -0.08900    0.25600    -0.04300   -0.09800    0.25600    0.00254      1       25    25       1
    26   -0.04300   -0.09800    0.25600    -0.02600   -0.10400    0.25600    0.00254      1       26    26       1
    27   -0.02600   -0.10400    0.25600    -0.00800   -0.10700    0.25600    0.00254      1       27    27       1
    28   -0.00800   -0.10700    0.25600     0.01100   -0.10700    0.25600    0.00254      1       28    28       1
    29    0.01100   -0.10700    0.25600     0.02900   -0.10300    0.25600    0.00254      1       29    29       1
    30    0.02900   -0.10300    0.25600     0.04600   -0.09700    0.25600    0.00254      1       30    30       1
    31    0.04600   -0.09700    0.25600     0.06200   -0.08700    0.25600    0.00254      1       31    31       1
    32    0.06200   -0.08700    0.25600     0.07600   -0.07600    0.25600    0.00254      1       32    32       1
    33    0.07600   -0.07600    0.25600     0.08800   -0.06100    0.25600    0.00254      1       33    33       1
    34    0.08800   -0.06100    0.25600     0.09700   -0.04500    0.25600    0.00254      1       34    34       1
    35    0.09700   -0.04500    0.25600     0.10400   -0.02800    0.25600    0.00254      1       35    35       1
    36    0.10400   -0.02800    0.25600     0.10700   -0.01000    0.25600    0.00254      1       36    36     999
    37    0.10700    0.00000    0.00000     0.10600    0.01800    0.00000    0.00254      1       37    37       2
    38    0.10600    0.01800    0.00000     0.10100    0.03600    0.00000    0.00254      1       38    38       2
    39    0.10100    0.03600    0.00000     0.09300    0.05300    0.00000    0.00254      1       39    39       2
    40    0.09300    0.05300    0.00000     0.08300    0.06800    0.00000    0.00254      1       40    40       2
    41    0.08300    0.06800    0.00000     0.07000    0.08100    0.00000    0.00254      1       41    41       2
    42    0.07000    0.08100    0.00000     0.05500    0.09200    0.00000    0.00254      1       42    42       2
    43    0.05500    0.09200    0.00000     0.03900    0.10000    0.00000    0.00254      1       43    43       2
    44    0.03900    0.10000    0.00000     0.02100    0.10500    0.00000    0.00254      1       44    44       2
    45    0.02100    0.10500    0.00000     0.00300    0.10700    0.00000    0.00254      1       45    45       2
    46    0.00300    0.10700    0.00000    -0.01600    0.10600    0.00000    0.00254      1       46    46       2
    47   -0.01600    0.10600    0.00000    -0.03400    0.10200    0.00000    0.00254      1       47    47       2
    48   -0.03400    0.10200    0.00000    -0.05100    0.09500    0.00000    0.00254      1       48    48       2
    49   -0.05100    0.09500    0.00000    -0.06600    0.08400    0.00000    0.00254      1       49    49       2
    50   -0.06600    0.08400    0.00000    -0.08000    0.07200    0.00000    0.00254      1       50    50       2
    51   -0.08000    0.07200    0.00000    -0.09100    0.05700    0.00000    0.00254      1       51    51       2
    52   -0.09100    0.05700    0.00000    -0.09900    0.04100    0.00000    0.00254      1       52    52       2
    53   -0.09900    0.04100    0.00000    -0.10500    0.02300    0.00000    0.00254      1       53    53       2
    54   -0.10500    0.02300    0.00000    -0.10700    0.00500    0.00000    0.00254      1       54    54       2
    55   -0.10700    0.00500    0.00000    -0.10600   -0.01300    0.00000    0.00254      1       55    55       2
    56   -0.10600   -0.01300    0.00000    -0.10300   -0.03100    0.00000    0.00254      1       56    56       2
    57   -0.10300   -0.03100    0.00000    -0.09600   -0.04900    0.00000    0.00254      1       57    57       2
    58   -0.09600   -0.04900    0.00000    -0.08600   -0.06400    0.00000    0.00254      1       58    58       2
    59   -0.08600   -0.06400    0.00000    -0.07400   -0.07800    0.00000    0.00254      1       59    59       2
    60   -0.07400   -0.07800    0.00000    -0.05900   -0.08900    0.00000    0.00254      1       60    60       2
    61   -0.05900   -0.08900    0.00000    -0.04300   -0.09800    0.00000    0.00254      1       61    61       2
    62   -0.04300   -0.09800    0.00000    -0.02600   -0.10400    0.00000    0.00254      1       62    62       2
    63   -0.02600   -0.10400    0.00000    -0.00800   -0.10700    0.00000    0.00254      1       63    63       2
    64   -0.00800   -0.10700    0.00000     0.01100   -0.10700    0.00000    0.00254      1       64    64       2
    65    0.01100   -0.10700    0.00000     0.02900   -0.10300    0.00000    0.00254      1       65    65       2
    66    0.02900   -0.10300    0.00000     0.04600   -0.09700    0.00000    0.00254      1       66    66       2
    67    0.04600   -0.09700    0.00000     0.06200   -0.08700    0.00000    0.00254      1       67    67       2
    68    0.06200   -0.08700    0.00000     0.07600   -0.07600    0.00000    0.00254      1       68    68       2
    69    0.07600   -0.07600    0.00000     0.08800   -0.06100    0.00000    0.00254      1       69    69       2
    70    0.08800   -0.06100    0.00000     0.09700   -0.04500    0.00000    0.00254      1       70    70       2
    71    0.09700   -0.04500    0.00000     0.10400   -0.02800    0.00000    0.00254      1       71    71       2
    72    0.10400   -0.02800    0.00000     0.10700   -0.01000    0.00000    0.00254      1       72    72       2
    73    0.10700    0.00000    0.00000     0.10700    0.00000    0.25600    0.00254      5       73    77       3
    74    0.10700   -0.01000    0.00000     0.10700   -0.01000    0.25600    0.00254      5       78    82       4
      THE STRUCTURE HAS BEEN MOVED, MOVE DATA CARD IS -
        0    0   0.00000   0.00000   0.00000   0.00000   0.00000   8.00000   0.00000

   GROUND PLANE SPECIFIED.

   TOTAL SEGMENTS USED=   82     NO. SEG. IN A SYMMETRIC CELL=   82     SYMMETRY FLAG=  0


         - MULTIPLE WIRE JUNCTIONS -
 JUNCTION    SEGMENTS  (- FOR END 1, + FOR END 2)
  NONE




                                 - - - - SEGMENTATION DATA - - - -

                                        COORDINATES IN METERS

                         I+ AND I- INDICATE THE SEGMENTS BEFORE AND AFTER I


  SEG.   COORDINATES OF SEG. CENTER     SEG.     ORIENTATION ANGLES    WIRE    CONNECTION DATA   TAG
  NO.       X         Y         Z       LENGTH     ALPHA     BETA      RADIUS    I-   I    I+    NO.
     1   0.10650   0.00900   8.25600   0.01803    0.00000  93.17983   0.00254    77    1    2      1
     2   0.10350   0.02700   8.25600   0.01868    0.00000 105.52411   0.00254     1    2    3      1
     3   0.09700   0.04450   8.25600   0.01879    0.00000 115.20112   0.00254     2    3    4      1
     4   0.08800   0.06050   8.25600   0.01803    0.00000 123.69007   0.00254     3    4    5      1
     5   0.07650   0.07450   8.25600   0.01838    0.00000 135.00000   0.00254     4    5    6      1
     6   0.06250   0.08650   8.25600   0.01860    0.00000 143.74616   0.00254     5    6    7      1
     7   0.04700   0.09600   8.25600   0.01789    0.00000 153.43495   0.00254     6    7    8      1
     8   0.03000   0.10250   8.25600   0.01868    0.00000 164.47589   0.00254     7    8    9      1
     9   0.01200   0.10600   8.25600   0.01811    0.00000 173.65981   0.00254     8    9   10      1
    10  -0.00650   0.10650   8.25600   0.01903    0.00000-176.98721   0.00254     9   10   11      1
    11  -0.02500   0.10400   8.25600   0.01844    0.00000-167.47119   0.00254    10   11   12      1
    12  -0.04250   0.09850   8.25600   0.01838    0.00000-157.61986   0.00254    11   12   13      1
    13  -0.05850   0.08950   8.25600   0.01860    0.00000-143.74616   0.00254    12   13   14      1
    14  -0.07300   0.07800   8.25600   0.01844    0.00000-139.39871   0.00254    13   14   15      1
    15  -0.08550   0.06450   8.25600   0.01860    0.00000-126.25384   0.00254    14   15   16      1
    16  -0.09500   0.04900   8.25600   0.01789    0.00000-116.56505   0.00254    15   16   17      1
    17  -0.10200   0.03200   8.25600   0.01897    0.00000-108.43495   0.00254    16   17   18      1
    18  -0.10600   0.01400   8.25600   0.01811    0.00000 -96.34019   0.00254    17   18   19      1
    19  -0.10650  -0.00400   8.25600   0.01803    0.00000 -86.82017   0.00254    18   19   20      1
    20  -0.10450  -0.02200   8.25600   0.01825    0.00000 -80.53768   0.00254    19   20   21      1
    21  -0.09950  -0.04000   8.25600   0.01931    0.00000 -68.74949   0.00254    20   21   22      1
    22  -0.09100  -0.05650   8.25600   0.01803    0.00000 -56.30993   0.00254    21   22   23      1
    23  -0.08000  -0.07100   8.25600   0.01844    0.00000 -49.39871   0.00254    22   23   24      1
    24  -0.06650  -0.08350   8.25600   0.01860    0.00000 -36.25384   0.00254    23   24   25      1
    25  -0.05100  -0.09350   8.25600   0.01836    0.00000 -29.35775   0.00254    24   25   26      1
    26  -0.03450  -0.10100   8.25600   0.01803    0.00000 -19.44003   0.00254    25   26   27      1
    27  -0.01700  -0.10550   8.25600   0.01825    0.00000  -9.46232   0.00254    26   27   28      1
    28   0.00150  -0.10700   8.25600   0.01900    0.00000   0.00000   0.00254    27   28   29      1
    29   0.02000  -0.10500   8.25600   0.01844    0.00000  12.52881   0.00254    28   29   30      1
    30   0.03750  -0.10000   8.25600   0.01803    0.00000  19.44003   0.00254    29   30   31      1
    31   0.05400  -0.09200   8.25600   0.01887    0.00000  32.00538   0.00254    30   31   32      1
    32   0.06900  -0.08150   8.25600   0.01780    0.00000  38.15723   0.00254    31   32   33      1
    33   0.08200  -0.06850   8.25600   0.01921    0.00000  51.34019   0.00254    32   33   34      1
    34   0.09250  -0.05300   8.25600   0.01836    0.00000  60.64225   0.00254    33   34   35      1
    35   0.10050  -0.03650   8.25600   0.01838    0.00000  67.61986   0.00254    34   35   36      1
    36   0.10550  -0.01900   8.25600   0.01825    0.00000  80.53768   0.00254    35   36  -82    999
    37   0.10650   0.00900   8.00000   0.01803    0.00000  93.17983   0.00254   -73   37   38      2
    38   0.10350   0.02700   8.00000   0.01868    0.00000 105.52411   0.00254    37   38   39      2
    39   0.09700   0.04450   8.00000   0.01879    0.00000 115.20112   0.00254    38   39   40      2
    40   0.08800   0.06050   8.00000   0.01803    0.00000 123.69007   0.00254    39   40   41      2
    41   0.07650   0.07450   8.00000   0.01838    0.00000 135.00000   0.00254    40   41   42      2
    42   0.06250   0.08650   8.00000   0.01860    0.00000 143.74616   0.00254    41   42   43      2
    43   0.04700   0.09600   8.00000   0.01789    0.00000 153.43495   0.00254    42   43   44      2
    44   0.03000   0.10250   8.00000   0.01868    0.00000 164.47589   0.00254    43   44   45      2
    45   0.01200   0.10600   8.00000   0.01811    0.00000 173.65981   0.00254    44   45   46      2
    46  -0.00650   0.10650   8.00000   0.01903    0.00000-176.98721   0.00254    45   46   47      2
    47  -0.02500   0.10400   8.00000   0.01844    0.00000-167.47119   0.00254    46   47   48      2
    48  -0.04250   0.09850   8.00000   0.01838    0.00000-157.61986   0.00254    47   48   49      2
    49  -0.05850   0.08950   8.00000   0.01860    0.00000-143.74616   0.00254    48   49   50      2
    50  -0.07300   0.07800   8.00000   0.01844    0.00000-139.39871   0.00254    49   50   51      2
    51  -0.08550   0.06450   8.00000   0.01860    0.00000-126.25384   0.00254    50   51   52      2
    52  -0.09500   0.04900   8.00000   0.01789    0.00000-116.56505   0.00254    51   52   53      2
    53  -0.10200   0.03200   8.00000   0.01897    0.00000-108.43495   0.00254    52   53   54      2
    54  -0.10600   0.01400   8.00000   0.01811    0.00000 -96.34019   0.00254    53   54   55      2
    55  -0.10650  -0.00400   8.00000   0.01803    0.00000 -86.82017   0.00254    54   55   56      2
    56  -0.10450  -0.02200   8.00000   0.01825    0.00000 -80.53768   0.00254    55   56   57      2
    57  -0.09950  -0.04000   8.00000   0.01931    0.00000 -68.74949   0.00254    56   57   58      2
    58  -0.09100  -0.05650   8.00000   0.01803    0.00000 -56.30993   0.00254    57   58   59      2
    59  -0.08000  -0.07100   8.00000   0.01844    0.00000 -49.39871   0.00254    58   59   60      2
    60  -0.06650  -0.08350   8.00000   0.01860    0.00000 -36.25384   0.00254    59   60   61      2
    61  -0.05100  -0.09350   8.00000   0.01836    0.00000 -29.35775   0.00254    60   61   62      2
    62  -0.03450  -0.10100   8.00000   0.01803    0.00000 -19.44003   0.00254    61   62   63      2
    63  -0.01700  -0.10550   8.00000   0.01825    0.00000  -9.46232   0.00254    62   63   64      2
    64   0.00150  -0.10700   8.00000   0.01900    0.00000   0.00000   0.00254    63   64   65      2
    65   0.02000  -0.10500   8.00000   0.01844    0.00000  12.52881   0.00254    64   65   66      2
    66   0.03750  -0.10000   8.00000   0.01803    0.00000  19.44003   0.00254    65   66   67      2
    67   0.05400  -0.09200   8.00000   0.01887    0.00000  32.00538   0.00254    66   67   68      2
    68   0.06900  -0.08150   8.00000   0.01780    0.00000  38.15723   0.00254    67   68   69      2
    69   0.08200  -0.06850   8.00000   0.01921    0.00000  51.34019   0.00254    68   69   70      2
    70   0.09250  -0.05300   8.00000   0.01836    0.00000  60.64225   0.00254    69   70   71      2
    71   0.10050  -0.03650   8.00000   0.01838    0.00000  67.61986   0.00254    70   71   72      2
    72   0.10550  -0.01900   8.00000   0.01825    0.00000  80.53768   0.00254    71   72   78      2
    73   0.10700   0.00000   8.02560   0.05120   90.00000   0.00000   0.00254   -37   73   74      3
    74   0.10700   0.00000   8.07680   0.05120   90.00000   0.00000   0.00254    73   74   75      3
    75   0.10700   0.00000   8.12800   0.05120   90.00000   0.00000   0.00254    74   75   76      3
    76   0.10700   0.00000   8.17920   0.05120   90.00000   0.00000   0.00254    75   76   77      3
    77   0.10700   0.00000   8.23040   0.05120   90.00000   0.00000   0.00254    76   77    1      3
    78   0.10700  -0.01000   8.02560   0.05120   90.00000   0.00000   0.00254    72   78   79      4
    79   0.10700  -0.01000   8.07680   0.05120   90.00000   0.00000   0.00254    78   79   80      4
    80   0.10700  -0.01000   8.12800   0.05120   90.00000   0.00000   0.00254    79   80   81      4
    81   0.10700  -0.01000   8.17920   0.05120   90.00000   0.00000   0.00254    80   81   82      4
    82   0.10700  -0.01000   8.23040   0.05120   90.00000   0.00000   0.00254    81   82  -36      4






 ***** DATA CARD NO.  1   GN   2     0     0     0  1.10000E+01  1.00000E-02  0.00000E+00  0.00000E+00  0.00000E+00  0.00000E+00
 ***** DATA CARD NO.  2   EK   0     0     0     0  0.00000E+00  0.00000E+00  0.00000E+00  0.00000E+00  0.00000E+00  0.00000E+00
 ***** DATA CARD NO.  3   LD   5     0     0     0  5.80000E+07  0.00000E+00  0.00000E+00  0.00000E+00  0.00000E+00  0.00000E+00
 ***** DATA CARD NO.  4   EX   0   999     1     0  1.00000E+00  0.00000E+00  0.00000E+00  0.00000E+00  0.00000E+00  0.00000E+00
 ***** DATA CARD NO.  5   FR   0     1     0     0  1.44200E+02  0.00000E+00  0.00000E+00  0.00000E+00  0.00000E+00  0.00000E+00
 ***** DATA CARD NO.  6   RP   0     1     1  1000  8.50000E+01  9.00000E+01  0.00000E+00  0.00000E+00  0.00000E+00  0.00000E+00




                                 - - - - - - FREQUENCY - - - - - -

                                    FREQUENCY= 1.4420E+02 MHZ
                                    WAVELENGTH= 2.0791E+00 METERS




                    APPROXIMATE INTEGRATION EMPLOYED FOR SEGMENTS MORE THAN   1.000 WAVELENGTHS APART

                    THE EXTENDED THIN WIRE KERNEL WILL BE USED



                               - - - STRUCTURE IMPEDANCE LOADING - - -


       LOCATION          RESISTANCE   INDUCTANCE  CAPACITANCE       IMPEDANCE (OHMS)     CONDUCTIVITY    TYPE
    ITAG FROM THRU          OHMS        HENRYS       FARADS        REAL      IMAGINARY    MHOS/METER

     ALL                                                                                 5.8000E+07     WIRE  



                                  - - - ANTENNA ENVIRONMENT - - -

                                        FINITE GROUND.  SOMMERFELD SOLUTION
                                        RELATIVE DIELECTRIC CONST.= 11.000
                                        CONDUCTIVITY= 1.000E-02 MHOS/METER
                                        COMPLEX DIELECTRIC CONSTANT= 1.10000E+01-1.24660E+00



                                - - - MATRIX TIMING - - -

                        FILL=    0.016 SEC.,  FACTOR=    0.000 SEC.



                                          - - - ANTENNA INPUT PARAMETERS - - -

   TAG   SEG.    VOLTAGE (VOLTS)         CURRENT (AMPS)         IMPEDANCE (OHMS)        ADMITTANCE (MHOS)      POWER
   NO.   NO.    REAL        IMAG.       REAL        IMAG.       REAL        IMAG.       REAL        IMAG.     (WATTS)
   999    36 1.00000E+00 0.00000E+00 1.09380E-03 1.92808E-03 2.22593E+02-3.92373E+02 1.09380E-03 1.92808E-03 5.46900E-04



                             - - - CURRENTS AND LOCATION - - -

                                 DISTANCES IN WAVELENGTHS


  SEG.  TAG    COORD. OF SEG. CENTER     SEG.            - - - CURRENT (AMPS) - - -
  NO.   NO.     X        Y        Z      LENGTH     REAL        IMAG.       MAG.        PHASE
     1    1   0.0512   0.0043   3.9710  0.00867  -8.1646E-04 -7.3403E-03  7.3856E-03  -96.347
     2    1   0.0498   0.0130   3.9710  0.00899  -7.7604E-04 -7.4497E-03  7.4900E-03  -95.947
     3    1   0.0467   0.0214   3.9710  0.00904  -7.3145E-04 -7.5026E-03  7.5382E-03  -95.568
     4    1   0.0423   0.0291   3.9710  0.00867  -6.8502E-04 -7.5168E-03  7.5480E-03  -95.207
     5    1   0.0368   0.0358   3.9710  0.00884  -6.3674E-04 -7.4995E-03  7.5265E-03  -94.853
     6    1   0.0301   0.0416   3.9710  0.00895  -5.8553E-04 -7.4536E-03  7.4765E-03  -94.492
     7    1   0.0226   0.0462   3.9710  0.00860  -5.3294E-04 -7.3821E-03  7.4013E-03  -94.129
     8    1   0.0144   0.0493   3.9710  0.00899  -4.7829E-04 -7.2858E-03  7.3015E-03  -93.756
     9    1   0.0058   0.0510   3.9710  0.00871  -4.2148E-04 -7.1655E-03  7.1779E-03  -93.366
    10    1  -0.0031   0.0512   3.9710  0.00915  -3.6239E-04 -7.0211E-03  7.0305E-03  -92.955
    11    1  -0.0120   0.0500   3.9710  0.00887  -3.0111E-04 -6.8529E-03  6.8596E-03  -92.516
    12    1  -0.0204   0.0474   3.9710  0.00884  -2.3934E-04 -6.6664E-03  6.6707E-03  -92.056
    13    1  -0.0281   0.0430   3.9710  0.00895  -1.7594E-04 -6.4587E-03  6.4611E-03  -91.560
    14    1  -0.0351   0.0375   3.9710  0.00887  -1.1145E-04 -6.2321E-03  6.2331E-03  -91.024
    15    1  -0.0411   0.0310   3.9710  0.00895  -4.5811E-05 -5.9865E-03  5.9867E-03  -90.438
    16    1  -0.0457   0.0236   3.9710  0.00860   1.9598E-05 -5.7275E-03  5.7275E-03  -89.804
    17    1  -0.0491   0.0154   3.9710  0.00913   8.6198E-05 -5.4496E-03  5.4503E-03  -89.094
    18    1  -0.0510   0.0067   3.9710  0.00871   1.5361E-04 -5.1542E-03  5.1565E-03  -88.293
    19    1  -0.0512  -0.0019   3.9710  0.00867   2.1932E-04 -4.8524E-03  4.8574E-03  -87.412
    20    1  -0.0503  -0.0106   3.9710  0.00878   2.8505E-04 -4.5367E-03  4.5457E-03  -86.405
    21    1  -0.0479  -0.0192   3.9710  0.00929   3.5283E-04 -4.1963E-03  4.2111E-03  -85.194
    22    1  -0.0438  -0.0272   3.9710  0.00867   4.1952E-04 -3.8458E-03  3.8687E-03  -83.775
    23    1  -0.0385  -0.0342   3.9710  0.00887   4.8354E-04 -3.4935E-03  3.5268E-03  -82.120
    24    1  -0.0320  -0.0402   3.9710  0.00895   5.4734E-04 -3.1257E-03  3.1733E-03  -80.068
    25    1  -0.0245  -0.0450   3.9710  0.00883   6.0925E-04 -2.7505E-03  2.8172E-03  -77.510
    26    1  -0.0166  -0.0486   3.9710  0.00867   6.6841E-04 -2.3732E-03  2.4655E-03  -74.270
    27    1  -0.0082  -0.0507   3.9710  0.00878   7.2532E-04 -1.9901E-03  2.1181E-03  -69.975
    28    1   0.0007  -0.0515   3.9710  0.00914   7.8127E-04 -1.5903E-03  1.7718E-03  -63.836
    29    1   0.0096  -0.0505   3.9710  0.00887   8.3471E-04 -1.1824E-03  1.4473E-03  -54.780
    30    1   0.0180  -0.0481   3.9710  0.00867   8.8361E-04 -7.7990E-04  1.1786E-03  -41.433
    31    1   0.0260  -0.0443   3.9710  0.00908   9.2981E-04 -3.6683E-04  9.9955E-04  -21.530
    32    1   0.0332  -0.0392   3.9710  0.00856   9.7199E-04  5.0031E-05  9.7328E-04    2.947
    33    1   0.0394  -0.0329   3.9710  0.00924   1.0106E-03  4.7992E-04  1.1188E-03   25.402
    34    1   0.0445  -0.0255   3.9710  0.00883   1.0451E-03  9.3064E-04  1.3994E-03   41.685
    35    1   0.0483  -0.0176   3.9710  0.00884   1.0734E-03  1.4070E-03  1.7697E-03   52.661
    36  999   0.0507  -0.0091   3.9710  0.00878   1.0938E-03  1.9281E-03  2.2167E-03   60.434
    37    2   0.0512   0.0043   3.8479  0.00867   1.0894E-03  2.5674E-03  2.7890E-03   67.007
    38    2   0.0498   0.0130   3.8479  0.00899   1.0684E-03  2.2720E-03  2.5107E-03   64.814
    39    2   0.0467   0.0214   3.8479  0.00904   1.0389E-03  1.9765E-03  2.2329E-03   62.271
    40    2   0.0423   0.0291   3.8479  0.00867   1.0046E-03  1.6840E-03  1.9609E-03   59.181
    41    2   0.0368   0.0358   3.8479  0.00884   9.6628E-04  1.3914E-03  1.6940E-03   55.220
    42    2   0.0301   0.0416   3.8479  0.00895   9.2344E-04  1.0907E-03  1.4291E-03   49.748
    43    2   0.0226   0.0462   3.8479  0.00860   8.7764E-04  7.9083E-04  1.1814E-03   42.021
    44    2   0.0144   0.0493   3.8479  0.00899   8.2855E-04  4.8743E-04  9.6129E-04   30.468
    45    2   0.0058   0.0510   3.8479  0.00871   7.7631E-04  1.8025E-04  7.9696E-04   13.071
    46    2  -0.0031   0.0512   3.8479  0.00915   7.2095E-04 -1.3117E-04  7.3279E-04  -10.311
    47    2  -0.0120   0.0500   3.8479  0.00887   6.6269E-04 -4.4600E-04  7.9879E-04  -33.941
    48    2  -0.0204   0.0474   3.8479  0.00884   6.0330E-04 -7.5536E-04  9.6671E-04  -51.386
    49    2  -0.0281   0.0430   3.8479  0.00895   5.4185E-04 -1.0650E-03  1.1949E-03  -63.033
    50    2  -0.0351   0.0375   3.8479  0.00887   4.7905E-04 -1.3721E-03  1.4533E-03  -70.754
    51    2  -0.0411   0.0310   3.8479  0.00895   4.1485E-04 -1.6767E-03  1.7273E-03  -76.103
    52    2  -0.0457   0.0236   3.8479  0.00860   3.5072E-04 -1.9728E-03  2.0037E-03  -79.919
    53    2  -0.0491   0.0154   3.8479  0.00913   2.8533E-04 -2.2667E-03  2.2846E-03  -82.826
    54    2  -0.0510   0.0067   3.8479  0.00871   2.1905E-04 -2.5566E-03  2.5660E-03  -85.103
    55    2  -0.0512  -0.0019   3.8479  0.00867   1.5437E-04 -2.8321E-03  2.8363E-03  -86.880
    56    2  -0.0503  -0.0106   3.8479  0.00878   8.9578E-05 -3.1006E-03  3.1019E-03  -88.345
    57    2  -0.0479  -0.0192   3.8479  0.00929   2.2629E-05 -3.3702E-03  3.3703E-03  -89.615
    58    2  -0.0438  -0.0272   3.8479  0.00867  -4.3460E-05 -3.6282E-03  3.6284E-03  -90.686
    59    2  -0.0385  -0.0342   3.8479  0.00887  -1.0723E-04 -3.8689E-03  3.8704E-03  -91.588
    60    2  -0.0320  -0.0402   3.8479  0.00895  -1.7120E-04 -4.1018E-03  4.1054E-03  -92.390
    61    2  -0.0245  -0.0450   3.8479  0.00883  -2.3389E-04 -4.3208E-03  4.3271E-03  -93.098
    62    2  -0.0166  -0.0486   3.8479  0.00867  -2.9450E-04 -4.5231E-03  4.5327E-03  -93.725
    63    2  -0.0082  -0.0507   3.8479  0.00878  -3.5368E-04 -4.7107E-03  4.7239E-03  -94.294
    64    2   0.0007  -0.0515   3.8479  0.00914  -4.1298E-04 -4.8874E-03  4.9048E-03  -94.830
    65    2   0.0096  -0.0505   3.8479  0.00887  -4.7097E-04 -5.0478E-03  5.0697E-03  -95.330
    66    2   0.0180  -0.0481   3.8479  0.00867  -5.2571E-04 -5.1857E-03  5.2122E-03  -95.789
    67    2   0.0260  -0.0443   3.8479  0.00908  -5.7930E-04 -5.3060E-03  5.3376E-03  -96.231
    68    2   0.0332  -0.0392   3.8479  0.00856  -6.3058E-04 -5.4044E-03  5.4410E-03  -96.655
    69    2   0.0394  -0.0329   3.8479  0.00924  -6.8030E-04 -5.4806E-03  5.5227E-03  -97.076
    70    2   0.0445  -0.0255   3.8479  0.00883  -7.2836E-04 -5.5299E-03  5.5777E-03  -97.503
    71    2   0.0483  -0.0176   3.8479  0.00884  -7.7274E-04 -5.5446E-03  5.5982E-03  -97.934
    72    2   0.0507  -0.0091   3.8479  0.00878  -8.1380E-04 -5.5049E-03  5.5647E-03  -98.409
    73    3   0.0515   0.0000   3.8602  0.02463  -1.0949E-03 -3.2112E-03  3.3927E-03 -108.827
    74    3   0.0515   0.0000   3.8848  0.02463  -1.0755E-03 -4.2137E-03  4.3488E-03 -104.319
    75    3   0.0515   0.0000   3.9095  0.02463  -1.0324E-03 -5.1842E-03  5.2860E-03 -101.262
    76    3   0.0515   0.0000   3.9341  0.02463  -9.6726E-04 -6.0844E-03  6.1608E-03  -99.033
    77    3   0.0515   0.0000   3.9587  0.02463  -8.8273E-04 -6.8884E-03  6.9448E-03  -97.302
    78    4   0.0515  -0.0048   3.8602  0.02463  -8.8146E-04 -5.1652E-03  5.2399E-03  -99.684
    79    4   0.0515  -0.0048   3.8848  0.02463  -9.6762E-04 -4.5128E-03  4.6154E-03 -102.102
    80    4   0.0515  -0.0048   3.9095  0.02463  -1.0342E-03 -3.7886E-03  3.9273E-03 -105.268
    81    4   0.0515  -0.0048   3.9341  0.02463  -1.0786E-03 -3.0325E-03  3.2186E-03 -109.579
    82    4   0.0515  -0.0048   3.9587  0.02463  -1.0989E-03 -2.3189E-03  2.5661E-03 -115.355



                                        - - - POWER BUDGET - - -

                                           INPUT POWER   = 5.4690E-04 WATTS
                                           RADIATED POWER= 5.4317E-04 WATTS
                                           STRUCTURE LOSS= 3.7277E-06 WATTS
                                           NETWORK LOSS  = 0.0000E+00 WATTS
                                           EFFICIENCY    =  99.32 PERCENT



                                                - - - RADIATION PATTERNS - - -

  - - ANGLES - -           - POWER GAINS -       - - - POLARIZATION - - -    - - - E(THETA) - - -    - - - E(PHI) - - -
  THETA     PHI        VERT.   HOR.    TOTAL      AXIAL     TILT   SENSE     MAGNITUDE    PHASE      MAGNITUDE    PHASE 
 DEGREES  DEGREES       DB      DB      DB        RATIO     DEG.              VOLTS/M    DEGREES      VOLTS/M    DEGREES
   85.00    90.00       3.81   -4.58    4.40    0.38080    -0.64  RIGHT     2.80679E-01    88.74    1.06928E-01    -2.68






 ***** DATA CARD NO.  7   EN   0     1     1  1000  8.50000E+01  9.00000E+01  0.00000E+00  0.00000E+00  0.00000E+00  0.00000E+00

 RUN TIME =     0.094
