1



                                 *********************************************

                                    NUMERICAL ELECTROMAGNETICS CODE (NEC-2D)

                                 *********************************************




                                     - - - - COMMENTS - - - -


                          No comments specified                                                      
                                                                                                     




                                 - - - STRUCTURE SPECIFICATION - - -

                                     COORDINATES MUST BE INPUT IN
                                     METERS OR BE SCALED TO METERS
                                     BEFORE STRUCTURE INPUT IS ENDED


  WIRE                                                                               NO. OF    FIRST  LAST     TAG
  NO.        X1         Y1         Z1          X2         Y2         Z2      RADIUS   SEG.     SEG.   SEG.     NO.
     1    0.10700    0.00000    0.18400     0.10500    0.01800    0.18400    0.00231      1        1     1       1
     2    0.10500    0.01800    0.18400     0.10100    0.03600    0.18400    0.00231      1        2     2       1
     3    0.10100    0.03600    0.18400     0.09300    0.05300    0.18400    0.00231      1        3     3       1
     4    0.09300    0.05300    0.18400     0.08300    0.06800    0.18400    0.00231      1        4     4       1
     5    0.08300    0.06800    0.18400     0.07000    0.08100    0.18400    0.00231      1        5     5       1
     6    0.07000    0.08100    0.18400     0.05500    0.09200    0.18400    0.00231      1        6     6       1
     7    0.05500    0.09200    0.18400     0.03900    0.10000    0.18400    0.00231      1        7     7       1
     8    0.03900    0.10000    0.18400     0.02100    0.10500    0.18400    0.00231      1        8     8       1
     9    0.02100    0.10500    0.18400     0.00300    0.10700    0.18400    0.00231      1        9     9       1
    10    0.00300    0.10700    0.18400    -0.01600    0.10600    0.18400    0.00231      1       10    10       1
    11   -0.01600    0.10600    0.18400    -0.03300    0.10200    0.18400    0.00231      1       11    11       1
    12   -0.03300    0.10200    0.18400    -0.05000    0.09500    0.18400    0.00231      1       12    12       1
    13   -0.05000    0.09500    0.18400    -0.06600    0.08500    0.18400    0.00231      1       13    13       1
    14   -0.06600    0.08500    0.18400    -0.07900    0.07200    0.18400    0.00231      1       14    14       1
    15   -0.07900    0.07200    0.18400    -0.09000    0.05800    0.18400    0.00231      1       15    15       1
    16   -0.09000    0.05800    0.18400    -0.09900    0.04100    0.18400    0.00231      1       16    16       1
    17   -0.09900    0.04100    0.18400    -0.10400    0.02400    0.18400    0.00231      1       17    17       1
    18   -0.10400    0.02400    0.18400    -0.10700    0.00600    0.18400    0.00231      1       18    18       1
    19   -0.10700    0.00600    0.18400    -0.10600   -0.01300    0.18400    0.00231      1       19    19       1
    20   -0.10600   -0.01300    0.18400    -0.10300   -0.03100    0.18400    0.00231      1       20    20       1
    21   -0.10300   -0.03100    0.18400    -0.09600   -0.04800    0.18400    0.00231      1       21    21       1
    22   -0.09600   -0.04800    0.18400    -0.08600   -0.06300    0.18400    0.00231      1       22    22       1
    23   -0.08600   -0.06300    0.18400    -0.07400   -0.07700    0.18400    0.00231      1       23    23       1
    24   -0.07400   -0.07700    0.18400    -0.06000   -0.08900    0.18400    0.00231      1       24    24       1
    25   -0.06000   -0.08900    0.18400    -0.04400   -0.09800    0.18400    0.00231      1       25    25       1
    26   -0.04400   -0.09800    0.18400    -0.02600   -0.10400    0.18400    0.00231      1       26    26       1
    27   -0.02600   -0.10400    0.18400    -0.00800   -0.10700    0.18400    0.00231      1       27    27       1
    28   -0.00800   -0.10700    0.18400     0.01000   -0.10700    0.18400    0.00231      1       28    28       1
    29    0.01000   -0.10700    0.18400     0.02800   -0.10300    0.18400    0.00231      1       29    29       1
    30    0.02800   -0.10300    0.18400     0.04500   -0.09700    0.18400    0.00231      1       30    30       1
    31    0.04500   -0.09700    0.18400     0.06100   -0.08800    0.18400    0.00231      1       31    31       1
    32    0.06100   -0.08800    0.18400     0.07500   -0.07600    0.18400    0.00231      1       32    32       1
    33    0.07500   -0.07600    0.18400     0.08700   -0.06200    0.18400    0.00231      1       33    33       1
    34    0.08700   -0.06200    0.18400     0.09600   -0.04600    0.18400    0.00231      1       34    34       1
    35    0.09600   -0.04600    0.18400     0.10300   -0.02900    0.18400    0.00231      1       35    35       1
    36    0.10300   -0.02900    0.18400     0.10600   -0.01100    0.18400    0.00231      1       36    36     999
    37    0.10700    0.00000    0.00000     0.10500    0.01800    0.00000    0.00231      1       37    37       2
    38    0.10500    0.01800    0.00000     0.10100    0.03600    0.00000    0.00231      1       38    38       2
    39    0.10100    0.03600    0.00000     0.09300    0.05300    0.00000    0.00231      1       39    39       2
    40    0.09300    0.05300    0.00000     0.08300    0.06800    0.00000    0.00231      1       40    40       2
    41    0.08300    0.06800    0.00000     0.07000    0.08100    0.00000    0.00231      1       41    41       2
    42    0.07000    0.08100    0.00000     0.05500    0.09200    0.00000    0.00231      1       42    42       2
    43    0.05500    0.09200    0.00000     0.03900    0.10000    0.00000    0.00231      1       43    43       2
    44    0.03900    0.10000    0.00000     0.02100    0.10500    0.00000    0.00231      1       44    44       2
    45    0.02100    0.10500    0.00000     0.00300    0.10700    0.00000    0.00231      1       45    45       2
    46    0.00300    0.10700    0.00000    -0.01600    0.10600    0.00000    0.00231      1       46    46       2
    47   -0.01600    0.10600    0.00000    -0.03300    0.10200    0.00000    0.00231      1       47    47       2
    48   -0.03300    0.10200    0.00000    -0.05000    0.09500    0.00000    0.00231      1       48    48       2
    49   -0.05000    0.09500    0.00000    -0.06600    0.08500    0.00000    0.00231      1       49    49       2
    50   -0.06600    0.08500    0.00000    -0.07900    0.07200    0.00000    0.00231      1       50    50       2
    51   -0.07900    0.07200    0.00000    -0.09000    0.05800    0.00000    0.00231      1       51    51       2
    52   -0.09000    0.05800    0.00000    -0.09900    0.04100    0.00000    0.00231      1       52    52       2
    53   -0.09900    0.04100    0.00000    -0.10400    0.02400    0.00000    0.00231      1       53    53       2
    54   -0.10400    0.02400    0.00000    -0.10700    0.00600    0.00000    0.00231      1       54    54       2
    55   -0.10700    0.00600    0.00000    -0.10600   -0.01300    0.00000    0.00231      1       55    55       2
    56   -0.10600   -0.01300    0.00000    -0.10300   -0.03100    0.00000    0.00231      1       56    56       2
    57   -0.10300   -0.03100    0.00000    -0.09600   -0.04800    0.00000    0.00231      1       57    57       2
    58   -0.09600   -0.04800    0.00000    -0.08600   -0.06300    0.00000    0.00231      1       58    58       2
    59   -0.08600   -0.06300    0.00000    -0.07400   -0.07700    0.00000    0.00231      1       59    59       2
    60   -0.07400   -0.07700    0.00000    -0.06000   -0.08900    0.00000    0.00231      1       60    60       2
    61   -0.06000   -0.08900    0.00000    -0.04400   -0.09800    0.00000    0.00231      1       61    61       2
    62   -0.04400   -0.09800    0.00000    -0.02600   -0.10400    0.00000    0.00231      1       62    62       2
    63   -0.02600   -0.10400    0.00000    -0.00800   -0.10700    0.00000    0.00231      1       63    63       2
    64   -0.00800   -0.10700    0.00000     0.01000   -0.10700    0.00000    0.00231      1       64    64       2
    65    0.01000   -0.10700    0.00000     0.02800   -0.10300    0.00000    0.00231      1       65    65       2
    66    0.02800   -0.10300    0.00000     0.04500   -0.09700    0.00000    0.00231      1       66    66       2
    67    0.04500   -0.09700    0.00000     0.06100   -0.08800    0.00000    0.00231      1       67    67       2
    68    0.06100   -0.08800    0.00000     0.07500   -0.07600    0.00000    0.00231      1       68    68       2
    69    0.07500   -0.07600    0.00000     0.08700   -0.06200    0.00000    0.00231      1       69    69       2
    70    0.08700   -0.06200    0.00000     0.09600   -0.04600    0.00000    0.00231      1       70    70       2
    71    0.09600   -0.04600    0.00000     0.10300   -0.02900    0.00000    0.00231      1       71    71       2
    72    0.10300   -0.02900    0.00000     0.10600   -0.01100    0.00000    0.00231      1       72    72       2
    73    0.10700    0.00000    0.00000     0.10700    0.00000    0.18400    0.00231      4       73    76       3
    74    0.10600   -0.01100    0.00000     0.10600   -0.01100    0.18400    0.00231      4       77    80       4
      THE STRUCTURE HAS BEEN MOVED, MOVE DATA CARD IS -
        0    0   0.00000   0.00000   0.00000   0.00000   0.00000   8.00000   0.00000

   GROUND PLANE SPECIFIED.

   TOTAL SEGMENTS USED=   80     NO. SEG. IN A SYMMETRIC CELL=   80     SYMMETRY FLAG=  0


         - MULTIPLE WIRE JUNCTIONS -
 JUNCTION    SEGMENTS  (- FOR END 1, + FOR END 2)
  NONE




                                 - - - - SEGMENTATION DATA - - - -

                                        COORDINATES IN METERS

                         I+ AND I- INDICATE THE SEGMENTS BEFORE AND AFTER I


  SEG.   COORDINATES OF SEG. CENTER     SEG.     ORIENTATION ANGLES    WIRE    CONNECTION DATA   TAG
  NO.       X         Y         Z       LENGTH     ALPHA     BETA      RADIUS    I-   I    I+    NO.
     1   0.10600   0.00900   8.18400   0.01811    0.00000  96.34019   0.00231    76    1    2      1
     2   0.10300   0.02700   8.18400   0.01844    0.00000 102.52881   0.00231     1    2    3      1
     3   0.09700   0.04450   8.18400   0.01879    0.00000 115.20112   0.00231     2    3    4      1
     4   0.08800   0.06050   8.18400   0.01803    0.00000 123.69007   0.00231     3    4    5      1
     5   0.07650   0.07450   8.18400   0.01838    0.00000 135.00000   0.00231     4    5    6      1
     6   0.06250   0.08650   8.18400   0.01860    0.00000 143.74616   0.00231     5    6    7      1
     7   0.04700   0.09600   8.18400   0.01789    0.00000 153.43495   0.00231     6    7    8      1
     8   0.03000   0.10250   8.18400   0.01868    0.00000 164.47589   0.00231     7    8    9      1
     9   0.01200   0.10600   8.18400   0.01811    0.00000 173.65981   0.00231     8    9   10      1
    10  -0.00650   0.10650   8.18400   0.01903    0.00000-176.98721   0.00231     9   10   11      1
    11  -0.02450   0.10400   8.18400   0.01746    0.00000-166.75948   0.00231    10   11   12      1
    12  -0.04150   0.09850   8.18400   0.01838    0.00000-157.61986   0.00231    11   12   13      1
    13  -0.05800   0.09000   8.18400   0.01887    0.00000-147.99462   0.00231    12   13   14      1
    14  -0.07250   0.07850   8.18400   0.01838    0.00000-135.00000   0.00231    13   14   15      1
    15  -0.08450   0.06500   8.18400   0.01780    0.00000-128.15723   0.00231    14   15   16      1
    16  -0.09450   0.04950   8.18400   0.01924    0.00000-117.89727   0.00231    15   16   17      1
    17  -0.10150   0.03250   8.18400   0.01772    0.00000-106.38954   0.00231    16   17   18      1
    18  -0.10550   0.01500   8.18400   0.01825    0.00000 -99.46232   0.00231    17   18   19      1
    19  -0.10650  -0.00350   8.18400   0.01903    0.00000 -86.98721   0.00231    18   19   20      1
    20  -0.10450  -0.02200   8.18400   0.01825    0.00000 -80.53768   0.00231    19   20   21      1
    21  -0.09950  -0.03950   8.18400   0.01838    0.00000 -67.61986   0.00231    20   21   22      1
    22  -0.09100  -0.05550   8.18400   0.01803    0.00000 -56.30993   0.00231    21   22   23      1
    23  -0.08000  -0.07000   8.18400   0.01844    0.00000 -49.39871   0.00231    22   23   24      1
    24  -0.06700  -0.08300   8.18400   0.01844    0.00000 -40.60129   0.00231    23   24   25      1
    25  -0.05200  -0.09350   8.18400   0.01836    0.00000 -29.35775   0.00231    24   25   26      1
    26  -0.03500  -0.10100   8.18400   0.01897    0.00000 -18.43495   0.00231    25   26   27      1
    27  -0.01700  -0.10550   8.18400   0.01825    0.00000  -9.46232   0.00231    26   27   28      1
    28   0.00100  -0.10700   8.18400   0.01800    0.00000   0.00000   0.00231    27   28   29      1
    29   0.01900  -0.10500   8.18400   0.01844    0.00000  12.52881   0.00231    28   29   30      1
    30   0.03650  -0.10000   8.18400   0.01803    0.00000  19.44003   0.00231    29   30   31      1
    31   0.05300  -0.09250   8.18400   0.01836    0.00000  29.35775   0.00231    30   31   32      1
    32   0.06800  -0.08200   8.18400   0.01844    0.00000  40.60129   0.00231    31   32   33      1
    33   0.08100  -0.06900   8.18400   0.01844    0.00000  49.39871   0.00231    32   33   34      1
    34   0.09150  -0.05400   8.18400   0.01836    0.00000  60.64225   0.00231    33   34   35      1
    35   0.09950  -0.03750   8.18400   0.01838    0.00000  67.61986   0.00231    34   35   36      1
    36   0.10450  -0.02000   8.18400   0.01825    0.00000  80.53768   0.00231    35   36  -80    999
    37   0.10600   0.00900   8.00000   0.01811    0.00000  96.34019   0.00231   -73   37   38      2
    38   0.10300   0.02700   8.00000   0.01844    0.00000 102.52881   0.00231    37   38   39      2
    39   0.09700   0.04450   8.00000   0.01879    0.00000 115.20112   0.00231    38   39   40      2
    40   0.08800   0.06050   8.00000   0.01803    0.00000 123.69007   0.00231    39   40   41      2
    41   0.07650   0.07450   8.00000   0.01838    0.00000 135.00000   0.00231    40   41   42      2
    42   0.06250   0.08650   8.00000   0.01860    0.00000 143.74616   0.00231    41   42   43      2
    43   0.04700   0.09600   8.00000   0.01789    0.00000 153.43495   0.00231    42   43   44      2
    44   0.03000   0.10250   8.00000   0.01868    0.00000 164.47589   0.00231    43   44   45      2
    45   0.01200   0.10600   8.00000   0.01811    0.00000 173.65981   0.00231    44   45   46      2
    46  -0.00650   0.10650   8.00000   0.01903    0.00000-176.98721   0.00231    45   46   47      2
    47  -0.02450   0.10400   8.00000   0.01746    0.00000-166.75948   0.00231    46   47   48      2
    48  -0.04150   0.09850   8.00000   0.01838    0.00000-157.61986   0.00231    47   48   49      2
    49  -0.05800   0.09000   8.00000   0.01887    0.00000-147.99462   0.00231    48   49   50      2
    50  -0.07250   0.07850   8.00000   0.01838    0.00000-135.00000   0.00231    49   50   51      2
    51  -0.08450   0.06500   8.00000   0.01780    0.00000-128.15723   0.00231    50   51   52      2
    52  -0.09450   0.04950   8.00000   0.01924    0.00000-117.89727   0.00231    51   52   53      2
    53  -0.10150   0.03250   8.00000   0.01772    0.00000-106.38954   0.00231    52   53   54      2
    54  -0.10550   0.01500   8.00000   0.01825    0.00000 -99.46232   0.00231    53   54   55      2
    55  -0.10650  -0.00350   8.00000   0.01903    0.00000 -86.98721   0.00231    54   55   56      2
    56  -0.10450  -0.02200   8.00000   0.01825    0.00000 -80.53768   0.00231    55   56   57      2
    57  -0.09950  -0.03950   8.00000   0.01838    0.00000 -67.61986   0.00231    56   57   58      2
    58  -0.09100  -0.05550   8.00000   0.01803    0.00000 -56.30993   0.00231    57   58   59      2
    59  -0.08000  -0.07000   8.00000   0.01844    0.00000 -49.39871   0.00231    58   59   60      2
    60  -0.06700  -0.08300   8.00000   0.01844    0.00000 -40.60129   0.00231    59   60   61      2
    61  -0.05200  -0.09350   8.00000   0.01836    0.00000 -29.35775   0.00231    60   61   62      2
    62  -0.03500  -0.10100   8.00000   0.01897    0.00000 -18.43495   0.00231    61   62   63      2
    63  -0.01700  -0.10550   8.00000   0.01825    0.00000  -9.46232   0.00231    62   63   64      2
    64   0.00100  -0.10700   8.00000   0.01800    0.00000   0.00000   0.00231    63   64   65      2
    65   0.01900  -0.10500   8.00000   0.01844    0.00000  12.52881   0.00231    64   65   66      2
    66   0.03650  -0.10000   8.00000   0.01803    0.00000  19.44003   0.00231    65   66   67      2
    67   0.05300  -0.09250   8.00000   0.01836    0.00000  29.35775   0.00231    66   67   68      2
    68   0.06800  -0.08200   8.00000   0.01844    0.00000  40.60129   0.00231    67   68   69      2
    69   0.08100  -0.06900   8.00000   0.01844    0.00000  49.39871   0.00231    68   69   70      2
    70   0.09150  -0.05400   8.00000   0.01836    0.00000  60.64225   0.00231    69   70   71      2
    71   0.09950  -0.03750   8.00000   0.01838    0.00000  67.61986   0.00231    70   71   72      2
    72   0.10450  -0.02000   8.00000   0.01825    0.00000  80.53768   0.00231    71   72   77      2
    73   0.10700   0.00000   8.02300   0.04600   90.00000   0.00000   0.00231   -37   73   74      3
    74   0.10700   0.00000   8.06900   0.04600   90.00000   0.00000   0.00231    73   74   75      3
    75   0.10700   0.00000   8.11500   0.04600   90.00000   0.00000   0.00231    74   75   76      3
    76   0.10700   0.00000   8.16100   0.04600   90.00000   0.00000   0.00231    75   76    1      3
    77   0.10600  -0.01100   8.02300   0.04600   90.00000   0.00000   0.00231    72   77   78      4
    78   0.10600  -0.01100   8.06900   0.04600   90.00000   0.00000   0.00231    77   78   79      4
    79   0.10600  -0.01100   8.11500   0.04600   90.00000   0.00000   0.00231    78   79   80      4
    80   0.10600  -0.01100   8.16100   0.04600   90.00000   0.00000   0.00231    79   80  -36      4






 ***** DATA CARD NO.  1   GN   2     0     0     0  1.10000E+01  1.00000E-02  0.00000E+00  0.00000E+00  0.00000E+00  0.00000E+00
 ***** DATA CARD NO.  2   EK   0     0     0     0  0.00000E+00  0.00000E+00  0.00000E+00  0.00000E+00  0.00000E+00  0.00000E+00
 ***** DATA CARD NO.  3   LD   5     0     0     0  5.80000E+07  0.00000E+00  0.00000E+00  0.00000E+00  0.00000E+00  0.00000E+00
 ***** DATA CARD NO.  4   EX   0   999     1     0  1.00000E+00  0.00000E+00  0.00000E+00  0.00000E+00  0.00000E+00  0.00000E+00
 ***** DATA CARD NO.  5   FR   0     1     0     0  1.44200E+02  0.00000E+00  0.00000E+00  0.00000E+00  0.00000E+00  0.00000E+00
 ***** DATA CARD NO.  6   RP   0     1     1  1000  8.50000E+01  9.00000E+01  0.00000E+00  0.00000E+00  0.00000E+00  0.00000E+00




                                 - - - - - - FREQUENCY - - - - - -

                                    FREQUENCY= 1.4420E+02 MHZ
                                    WAVELENGTH= 2.0791E+00 METERS




                    APPROXIMATE INTEGRATION EMPLOYED FOR SEGMENTS MORE THAN   1.000 WAVELENGTHS APART

                    THE EXTENDED THIN WIRE KERNEL WILL BE USED



                               - - - STRUCTURE IMPEDANCE LOADING - - -


       LOCATION          RESISTANCE   INDUCTANCE  CAPACITANCE       IMPEDANCE (OHMS)     CONDUCTIVITY    TYPE
    ITAG FROM THRU          OHMS        HENRYS       FARADS        REAL      IMAGINARY    MHOS/METER

     ALL                                                                                 5.8000E+07     WIRE  



                                  - - - ANTENNA ENVIRONMENT - - -

                                        FINITE GROUND.  SOMMERFELD SOLUTION
                                        RELATIVE DIELECTRIC CONST.= 11.000
                                        CONDUCTIVITY= 1.000E-02 MHOS/METER
                                        COMPLEX DIELECTRIC CONSTANT= 1.10000E+01-1.24660E+00



                                - - - MATRIX TIMING - - -

                        FILL=    0.016 SEC.,  FACTOR=    0.000 SEC.



                                          - - - ANTENNA INPUT PARAMETERS - - -

   TAG   SEG.    VOLTAGE (VOLTS)         CURRENT (AMPS)         IMPEDANCE (OHMS)        ADMITTANCE (MHOS)      POWER
   NO.   NO.    REAL        IMAG.       REAL        IMAG.       REAL        IMAG.       REAL        IMAG.     (WATTS)
   999    36 1.00000E+00 0.00000E+00 3.20560E-02 1.13027E-03 3.11566E+01-1.09856E+00 3.20560E-02 1.13027E-03 1.60280E-02



                             - - - CURRENTS AND LOCATION - - -

                                 DISTANCES IN WAVELENGTHS


  SEG.  TAG    COORD. OF SEG. CENTER     SEG.            - - - CURRENT (AMPS) - - -
  NO.   NO.     X        Y        Z      LENGTH     REAL        IMAG.       MAG.        PHASE
     1    1   0.0510   0.0043   3.9364  0.00871   3.1714E-02 -4.5655E-03  3.2041E-02   -8.192
     2    1   0.0495   0.0130   3.9364  0.00887   3.5223E-02 -4.6981E-03  3.5535E-02   -7.597
     3    1   0.0467   0.0214   3.9364  0.00904   3.8174E-02 -4.7998E-03  3.8474E-02   -7.167
     4    1   0.0423   0.0291   3.9364  0.00867   4.0770E-02 -4.8797E-03  4.1061E-02   -6.825
     5    1   0.0368   0.0358   3.9364  0.00884   4.3094E-02 -4.9416E-03  4.3376E-02   -6.542
     6    1   0.0301   0.0416   3.9364  0.00895   4.5245E-02 -4.9883E-03  4.5519E-02   -6.292
     7    1   0.0226   0.0462   3.9364  0.00860   4.7181E-02 -5.0189E-03  4.7447E-02   -6.072
     8    1   0.0144   0.0493   3.9364  0.00899   4.8947E-02 -5.0341E-03  4.9205E-02   -5.872
     9    1   0.0058   0.0510   3.9364  0.00871   5.0555E-02 -5.0333E-03  5.0805E-02   -5.686
    10    1  -0.0031   0.0512   3.9364  0.00915   5.2011E-02 -5.0156E-03  5.2253E-02   -5.508
    11    1  -0.0118   0.0500   3.9364  0.00840   5.3282E-02 -4.9812E-03  5.3515E-02   -5.341
    12    1  -0.0200   0.0474   3.9364  0.00884   5.4378E-02 -4.9304E-03  5.4601E-02   -5.181
    13    1  -0.0279   0.0433   3.9364  0.00908   5.5355E-02 -4.8592E-03  5.5568E-02   -5.017
    14    1  -0.0349   0.0378   3.9364  0.00884   5.6170E-02 -4.7688E-03  5.6372E-02   -4.853
    15    1  -0.0406   0.0313   3.9364  0.00856   5.6806E-02 -4.6621E-03  5.6997E-02   -4.692
    16    1  -0.0455   0.0238   3.9364  0.00925   5.7298E-02 -4.5335E-03  5.7477E-02   -4.524
    17    1  -0.0488   0.0156   3.9364  0.00852   5.7628E-02 -4.3857E-03  5.7795E-02   -4.352
    18    1  -0.0507   0.0072   3.9364  0.00878   5.7795E-02 -4.2234E-03  5.7950E-02   -4.179
    19    1  -0.0512  -0.0017   3.9364  0.00915   5.7808E-02 -4.0360E-03  5.7949E-02   -3.994
    20    1  -0.0503  -0.0106   3.9364  0.00878   5.7658E-02 -3.8302E-03  5.7785E-02   -3.800
    21    1  -0.0479  -0.0190   3.9364  0.00884   5.7351E-02 -3.6099E-03  5.7465E-02   -3.602
    22    1  -0.0438  -0.0267   3.9364  0.00867   5.6889E-02 -3.3747E-03  5.6989E-02   -3.395
    23    1  -0.0385  -0.0337   3.9364  0.00887   5.6270E-02 -3.1245E-03  5.6357E-02   -3.178
    24    1  -0.0322  -0.0399   3.9364  0.00887   5.5486E-02 -2.8571E-03  5.5560E-02   -2.948
    25    1  -0.0250  -0.0450   3.9364  0.00883   5.4544E-02 -2.5770E-03  5.4605E-02   -2.705
    26    1  -0.0168  -0.0486   3.9364  0.00913   5.3425E-02 -2.2811E-03  5.3474E-02   -2.445
    27    1  -0.0082  -0.0507   3.9364  0.00878   5.2145E-02 -1.9760E-03  5.2183E-02   -2.170
    28    1   0.0005  -0.0515   3.9364  0.00866   5.0739E-02 -1.6703E-03  5.0766E-02   -1.885
    29    1   0.0091  -0.0505   3.9364  0.00887   4.9163E-02 -1.3556E-03  4.9182E-02   -1.579
    30    1   0.0176  -0.0481   3.9364  0.00867   4.7419E-02 -1.0350E-03  4.7430E-02   -1.250
    31    1   0.0255  -0.0445   3.9364  0.00883   4.5506E-02 -7.0933E-04  4.5511E-02   -0.893
    32    1   0.0327  -0.0394   3.9364  0.00887   4.3382E-02 -3.7394E-04  4.3383E-02   -0.494
    33    1   0.0390  -0.0332   3.9364  0.00887   4.1042E-02 -3.0467E-05  4.1042E-02   -0.043
    34    1   0.0440  -0.0260   3.9364  0.00883   3.8459E-02  3.2413E-04  3.8460E-02    0.483
    35    1   0.0479  -0.0180   3.9364  0.00884   3.5555E-02  7.0947E-04  3.5562E-02    1.143
    36  999   0.0503  -0.0096   3.9364  0.00878   3.2056E-02  1.1303E-03  3.2076E-02    2.019
    37    2   0.0510   0.0043   3.8479  0.00871   3.2048E-02  1.9445E-03  3.2107E-02    3.472
    38    2   0.0495   0.0130   3.8479  0.00887   3.5546E-02  1.7359E-03  3.5588E-02    2.796
    39    2   0.0467   0.0214   3.8479  0.00904   3.8484E-02  1.5249E-03  3.8514E-02    2.269
    40    2   0.0423   0.0291   3.8479  0.00867   4.1065E-02  1.3118E-03  4.1086E-02    1.830
    41    2   0.0368   0.0358   3.8479  0.00884   4.3374E-02  1.0960E-03  4.3388E-02    1.447
    42    2   0.0301   0.0416   3.8479  0.00895   4.5509E-02  8.7228E-04  4.5517E-02    1.098
    43    2   0.0226   0.0462   3.8479  0.00860   4.7427E-02  6.4777E-04  4.7432E-02    0.783
    44    2   0.0144   0.0493   3.8479  0.00899   4.9175E-02  4.2006E-04  4.9177E-02    0.489
    45    2   0.0058   0.0510   3.8479  0.00871   5.0764E-02  1.8991E-04  5.0765E-02    0.214
    46    2  -0.0031   0.0512   3.8479  0.00915   5.2201E-02 -4.2171E-05  5.2201E-02   -0.046
    47    2  -0.0118   0.0500   3.8479  0.00840   5.3452E-02 -2.6862E-04  5.3452E-02   -0.288
    48    2  -0.0200   0.0474   3.8479  0.00884   5.4526E-02 -4.8795E-04  5.4529E-02   -0.513
    49    2  -0.0279   0.0433   3.8479  0.00908   5.5482E-02 -7.1117E-04  5.5487E-02   -0.734
    50    2  -0.0349   0.0378   3.8479  0.00884   5.6275E-02 -9.2817E-04  5.6283E-02   -0.945
    51    2  -0.0406   0.0313   3.8479  0.00856   5.6888E-02 -1.1310E-03  5.6900E-02   -1.139
    52    2  -0.0455   0.0238   3.8479  0.00925   5.7357E-02 -1.3300E-03  5.7373E-02   -1.328
    53    2  -0.0488   0.0156   3.8479  0.00852   5.7664E-02 -1.5186E-03  5.7684E-02   -1.509
    54    2  -0.0507   0.0072   3.8479  0.00878   5.7809E-02 -1.6915E-03  5.7833E-02   -1.676
    55    2  -0.0512  -0.0017   3.8479  0.00915   5.7798E-02 -1.8592E-03  5.7828E-02   -1.842
    56    2  -0.0503  -0.0106   3.8479  0.00878   5.7624E-02 -2.0144E-03  5.7659E-02   -2.002
    57    2  -0.0479  -0.0190   3.8479  0.00884   5.7293E-02 -2.1547E-03  5.7334E-02   -2.154
    58    2  -0.0438  -0.0267   3.8479  0.00867   5.6808E-02 -2.2815E-03  5.6854E-02   -2.300
    59    2  -0.0385  -0.0337   3.8479  0.00887   5.6166E-02 -2.3961E-03  5.6218E-02   -2.443
    60    2  -0.0322  -0.0399   3.8479  0.00887   5.5360E-02 -2.4996E-03  5.5416E-02   -2.585
    61    2  -0.0250  -0.0450   3.8479  0.00883   5.4395E-02 -2.5904E-03  5.4457E-02   -2.726
    62    2  -0.0168  -0.0486   3.8479  0.00913   5.3254E-02 -2.6703E-03  5.3321E-02   -2.871
    63    2  -0.0082  -0.0507   3.8479  0.00878   5.1953E-02 -2.7382E-03  5.2025E-02   -3.017
    64    2   0.0005  -0.0515   3.8479  0.00866   5.0526E-02 -2.7934E-03  5.0603E-02   -3.164
    65    2   0.0091  -0.0505   3.8479  0.00887   4.8931E-02 -2.8383E-03  4.9013E-02   -3.320
    66    2   0.0176  -0.0481   3.8479  0.00867   4.7168E-02 -2.8731E-03  4.7256E-02   -3.486
    67    2   0.0255  -0.0445   3.8479  0.00883   4.5237E-02 -2.8977E-03  4.5329E-02   -3.665
    68    2   0.0327  -0.0394   3.8479  0.00887   4.3096E-02 -2.9120E-03  4.3194E-02   -3.866
    69    2   0.0390  -0.0332   3.8479  0.00887   4.0740E-02 -2.9150E-03  4.0844E-02   -4.093
    70    2   0.0440  -0.0260   3.8479  0.00883   3.8142E-02 -2.9049E-03  3.8253E-02   -4.355
    71    2   0.0479  -0.0180   3.8479  0.00884   3.5225E-02 -2.8780E-03  3.5342E-02   -4.671
    72    2   0.0503  -0.0096   3.8479  0.00878   3.1715E-02 -2.8208E-03  3.1840E-02   -5.083
    73    3   0.0515   0.0000   3.8590  0.02213  -2.2921E-02 -2.3617E-03  2.3042E-02 -174.117
    74    3   0.0515   0.0000   3.8811  0.02213  -7.9080E-03 -2.9988E-03  8.4575E-03 -159.232
    75    3   0.0515   0.0000   3.9032  0.02213   7.5525E-03 -3.6229E-03  8.3765E-03  -25.627
    76    3   0.0515   0.0000   3.9253  0.02213   2.2574E-02 -4.2068E-03  2.2963E-02  -10.556
    77    4   0.0510  -0.0053   3.8590  0.02213   2.2563E-02 -2.5783E-03  2.2710E-02   -6.519
    78    4   0.0510  -0.0053   3.8811  0.02213   7.5464E-03 -2.1521E-03  7.8473E-03  -15.918
    79    4   0.0510  -0.0053   3.9032  0.02213  -7.9089E-03 -1.7123E-03  8.0921E-03 -167.784
    80    4   0.0510  -0.0053   3.9253  0.02213  -2.2916E-02 -1.3239E-03  2.2954E-02 -176.694



                                        - - - POWER BUDGET - - -

                                           INPUT POWER   = 1.6028E-02 WATTS
                                           RADIATED POWER= 1.5661E-02 WATTS
                                           STRUCTURE LOSS= 3.6658E-04 WATTS
                                           NETWORK LOSS  = 0.0000E+00 WATTS
                                           EFFICIENCY    =  97.71 PERCENT



                                                - - - RADIATION PATTERNS - - -

  - - ANGLES - -           - POWER GAINS -       - - - POLARIZATION - - -    - - - E(THETA) - - -    - - - E(PHI) - - -
  THETA     PHI        VERT.   HOR.    TOTAL      AXIAL     TILT   SENSE     MAGNITUDE    PHASE      MAGNITUDE    PHASE 
 DEGREES  DEGREES       DB      DB      DB        RATIO     DEG.              VOLTS/M    DEGREES      VOLTS/M    DEGREES
   85.00    90.00     -21.89    4.20    4.21    0.02943    87.72  RIGHT     7.88202E-02   122.32    1.58980E+00    85.83






 ***** DATA CARD NO.  7   EN   0     1     1  1000  8.50000E+01  9.00000E+01  0.00000E+00  0.00000E+00  0.00000E+00  0.00000E+00

 RUN TIME =     0.094
