1



                                 *********************************************

                                    NUMERICAL ELECTROMAGNETICS CODE (NEC-2D)

                                 *********************************************




                                     - - - - COMMENTS - - - -


                          No comments specified                                                      
                                                                                                     




                                 - - - STRUCTURE SPECIFICATION - - -

                                     COORDINATES MUST BE INPUT IN
                                     METERS OR BE SCALED TO METERS
                                     BEFORE STRUCTURE INPUT IS ENDED


  WIRE                                                                               NO. OF    FIRST  LAST     TAG
  NO.        X1         Y1         Z1          X2         Y2         Z2      RADIUS   SEG.     SEG.   SEG.     NO.
     1    0.10100    0.00000    0.17800     0.10000    0.01700    0.17800    0.00286      1        1     1       1
     2    0.10000    0.01700    0.17800     0.09500    0.03400    0.17800    0.00286      1        2     2       1
     3    0.09500    0.03400    0.17800     0.08800    0.05000    0.17800    0.00286      1        3     3       1
     4    0.08800    0.05000    0.17800     0.07800    0.06400    0.17800    0.00286      1        4     4       1
     5    0.07800    0.06400    0.17800     0.06600    0.07700    0.17800    0.00286      1        5     5       1
     6    0.06600    0.07700    0.17800     0.05200    0.08700    0.17800    0.00286      1        6     6       1
     7    0.05200    0.08700    0.17800     0.03600    0.09500    0.17800    0.00286      1        7     7       1
     8    0.03600    0.09500    0.17800     0.02000    0.09900    0.17800    0.00286      1        8     8       1
     9    0.02000    0.09900    0.17800     0.00200    0.10100    0.17800    0.00286      1        9     9       1
    10    0.00200    0.10100    0.17800    -0.01500    0.10000    0.17800    0.00286      1       10    10       1
    11   -0.01500    0.10000    0.17800    -0.03200    0.09600    0.17800    0.00286      1       11    11       1
    12   -0.03200    0.09600    0.17800    -0.04800    0.08900    0.17800    0.00286      1       12    12       1
    13   -0.04800    0.08900    0.17800    -0.06300    0.08000    0.17800    0.00286      1       13    13       1
    14   -0.06300    0.08000    0.17800    -0.07500    0.06800    0.17800    0.00286      1       14    14       1
    15   -0.07500    0.06800    0.17800    -0.08600    0.05400    0.17800    0.00286      1       15    15       1
    16   -0.08600    0.05400    0.17800    -0.09400    0.03800    0.17800    0.00286      1       16    16       1
    17   -0.09400    0.03800    0.17800    -0.09900    0.02200    0.17800    0.00286      1       17    17       1
    18   -0.09900    0.02200    0.17800    -0.10100    0.00500    0.17800    0.00286      1       18    18       1
    19   -0.10100    0.00500    0.17800    -0.10000   -0.01300    0.17800    0.00286      1       19    19       1
    20   -0.10000   -0.01300    0.17800    -0.09700   -0.03000    0.17800    0.00286      1       20    20       1
    21   -0.09700   -0.03000    0.17800    -0.09000   -0.04600    0.17800    0.00286      1       21    21       1
    22   -0.09000   -0.04600    0.17800    -0.08100   -0.06100    0.17800    0.00286      1       22    22       1
    23   -0.08100   -0.06100    0.17800    -0.06900   -0.07400    0.17800    0.00286      1       23    23       1
    24   -0.06900   -0.07400    0.17800    -0.05600   -0.08500    0.17800    0.00286      1       24    24       1
    25   -0.05600   -0.08500    0.17800    -0.04000   -0.09300    0.17800    0.00286      1       25    25       1
    26   -0.04000   -0.09300    0.17800    -0.02400   -0.09800    0.17800    0.00286      1       26    26       1
    27   -0.02400   -0.09800    0.17800    -0.00700   -0.10100    0.17800    0.00286      1       27    27       1
    28   -0.00700   -0.10100    0.17800     0.01100   -0.10100    0.17800    0.00286      1       28    28       1
    29    0.01100   -0.10100    0.17800     0.02800   -0.09700    0.17800    0.00286      1       29    29       1
    30    0.02800   -0.09700    0.17800     0.04400   -0.09100    0.17800    0.00286      1       30    30       1
    31    0.04400   -0.09100    0.17800     0.05900   -0.08200    0.17800    0.00286      1       31    31       1
    32    0.05900   -0.08200    0.17800     0.07200   -0.07100    0.17800    0.00286      1       32    32       1
    33    0.07200   -0.07100    0.17800     0.08300   -0.05800    0.17800    0.00286      1       33    33       1
    34    0.08300   -0.05800    0.17800     0.09200   -0.04300    0.17800    0.00286      1       34    34       1
    35    0.09200   -0.04300    0.17800     0.09800   -0.02600    0.17800    0.00286      1       35    35       1
    36    0.09800   -0.02600    0.17800     0.10100   -0.00900    0.17800    0.00286      1       36    36     999
    37    0.10100    0.00000    0.00000     0.10000    0.01700    0.00000    0.00286      1       37    37       2
    38    0.10000    0.01700    0.00000     0.09500    0.03400    0.00000    0.00286      1       38    38       2
    39    0.09500    0.03400    0.00000     0.08800    0.05000    0.00000    0.00286      1       39    39       2
    40    0.08800    0.05000    0.00000     0.07800    0.06400    0.00000    0.00286      1       40    40       2
    41    0.07800    0.06400    0.00000     0.06600    0.07700    0.00000    0.00286      1       41    41       2
    42    0.06600    0.07700    0.00000     0.05200    0.08700    0.00000    0.00286      1       42    42       2
    43    0.05200    0.08700    0.00000     0.03600    0.09500    0.00000    0.00286      1       43    43       2
    44    0.03600    0.09500    0.00000     0.02000    0.09900    0.00000    0.00286      1       44    44       2
    45    0.02000    0.09900    0.00000     0.00200    0.10100    0.00000    0.00286      1       45    45       2
    46    0.00200    0.10100    0.00000    -0.01500    0.10000    0.00000    0.00286      1       46    46       2
    47   -0.01500    0.10000    0.00000    -0.03200    0.09600    0.00000    0.00286      1       47    47       2
    48   -0.03200    0.09600    0.00000    -0.04800    0.08900    0.00000    0.00286      1       48    48       2
    49   -0.04800    0.08900    0.00000    -0.06300    0.08000    0.00000    0.00286      1       49    49       2
    50   -0.06300    0.08000    0.00000    -0.07500    0.06800    0.00000    0.00286      1       50    50       2
    51   -0.07500    0.06800    0.00000    -0.08600    0.05400    0.00000    0.00286      1       51    51       2
    52   -0.08600    0.05400    0.00000    -0.09400    0.03800    0.00000    0.00286      1       52    52       2
    53   -0.09400    0.03800    0.00000    -0.09900    0.02200    0.00000    0.00286      1       53    53       2
    54   -0.09900    0.02200    0.00000    -0.10100    0.00500    0.00000    0.00286      1       54    54       2
    55   -0.10100    0.00500    0.00000    -0.10000   -0.01300    0.00000    0.00286      1       55    55       2
    56   -0.10000   -0.01300    0.00000    -0.09700   -0.03000    0.00000    0.00286      1       56    56       2
    57   -0.09700   -0.03000    0.00000    -0.09000   -0.04600    0.00000    0.00286      1       57    57       2
    58   -0.09000   -0.04600    0.00000    -0.08100   -0.06100    0.00000    0.00286      1       58    58       2
    59   -0.08100   -0.06100    0.00000    -0.06900   -0.07400    0.00000    0.00286      1       59    59       2
    60   -0.06900   -0.07400    0.00000    -0.05600   -0.08500    0.00000    0.00286      1       60    60       2
    61   -0.05600   -0.08500    0.00000    -0.04000   -0.09300    0.00000    0.00286      1       61    61       2
    62   -0.04000   -0.09300    0.00000    -0.02400   -0.09800    0.00000    0.00286      1       62    62       2
    63   -0.02400   -0.09800    0.00000    -0.00700   -0.10100    0.00000    0.00286      1       63    63       2
    64   -0.00700   -0.10100    0.00000     0.01100   -0.10100    0.00000    0.00286      1       64    64       2
    65    0.01100   -0.10100    0.00000     0.02800   -0.09700    0.00000    0.00286      1       65    65       2
    66    0.02800   -0.09700    0.00000     0.04400   -0.09100    0.00000    0.00286      1       66    66       2
    67    0.04400   -0.09100    0.00000     0.05900   -0.08200    0.00000    0.00286      1       67    67       2
    68    0.05900   -0.08200    0.00000     0.07200   -0.07100    0.00000    0.00286      1       68    68       2
    69    0.07200   -0.07100    0.00000     0.08300   -0.05800    0.00000    0.00286      1       69    69       2
    70    0.08300   -0.05800    0.00000     0.09200   -0.04300    0.00000    0.00286      1       70    70       2
    71    0.09200   -0.04300    0.00000     0.09800   -0.02600    0.00000    0.00286      1       71    71       2
    72    0.09800   -0.02600    0.00000     0.10100   -0.00900    0.00000    0.00286      1       72    72       2
    73    0.10100    0.00000    0.00000     0.10100    0.00000    0.17800    0.00286      4       73    76       3
    74    0.10100   -0.00900    0.00000     0.10100   -0.00900    0.17800    0.00286      4       77    80       4
      THE STRUCTURE HAS BEEN MOVED, MOVE DATA CARD IS -
        0    0   0.00000   0.00000   0.00000   0.00000   0.00000   8.00000   0.00000

   GROUND PLANE SPECIFIED.

   WHERE WIRE ENDS TOUCH GROUND, CURRENT WILL BE INTERPOLATED TO IMAGE IN GROUND PLANE.


   TOTAL SEGMENTS USED=   80     NO. SEG. IN A SYMMETRIC CELL=   80     SYMMETRY FLAG=  0


         - MULTIPLE WIRE JUNCTIONS -
 JUNCTION    SEGMENTS  (- FOR END 1, + FOR END 2)
  NONE




                                 - - - - SEGMENTATION DATA - - - -

                                        COORDINATES IN METERS

                         I+ AND I- INDICATE THE SEGMENTS BEFORE AND AFTER I


  SEG.   COORDINATES OF SEG. CENTER     SEG.     ORIENTATION ANGLES    WIRE    CONNECTION DATA   TAG
  NO.       X         Y         Z       LENGTH     ALPHA     BETA      RADIUS    I-   I    I+    NO.
     1   0.10050   0.00850   8.17800   0.01703    0.00000  93.36646   0.00286    76    1    2      1
     2   0.09750   0.02550   8.17800   0.01772    0.00000 106.38954   0.00286     1    2    3      1
     3   0.09150   0.04200   8.17800   0.01746    0.00000 113.62938   0.00286     2    3    4      1
     4   0.08300   0.05700   8.17800   0.01720    0.00000 125.53768   0.00286     3    4    5      1
     5   0.07200   0.07050   8.17800   0.01769    0.00000 132.70939   0.00286     4    5    6      1
     6   0.05900   0.08200   8.17800   0.01720    0.00000 144.46232   0.00286     5    6    7      1
     7   0.04400   0.09100   8.17800   0.01789    0.00000 153.43495   0.00286     6    7    8      1
     8   0.02800   0.09700   8.17800   0.01649    0.00000 165.96376   0.00286     7    8    9      1
     9   0.01100   0.10000   8.17800   0.01811    0.00000 173.65981   0.00286     8    9   10      1
    10  -0.00650   0.10050   8.17800   0.01703    0.00000-176.63354   0.00286     9   10   11      1
    11  -0.02350   0.09800   8.17800   0.01746    0.00000-166.75948   0.00286    10   11   12      1
    12  -0.04000   0.09250   8.17800   0.01746    0.00000-156.37062   0.00286    11   12   13      1
    13  -0.05550   0.08450   8.17800   0.01749    0.00000-149.03624   0.00286    12   13   14      1
    14  -0.06900   0.07400   8.17800   0.01697    0.00000-135.00000   0.00286    13   14   15      1
    15  -0.08050   0.06100   8.17800   0.01780    0.00000-128.15723   0.00286    14   15   16      1
    16  -0.09000   0.04600   8.17800   0.01789    0.00000-116.56505   0.00286    15   16   17      1
    17  -0.09650   0.03000   8.17800   0.01676    0.00000-107.35402   0.00286    16   17   18      1
    18  -0.10000   0.01350   8.17800   0.01712    0.00000 -96.70984   0.00286    17   18   19      1
    19  -0.10050  -0.00400   8.17800   0.01803    0.00000 -86.82017   0.00286    18   19   20      1
    20  -0.09850  -0.02150   8.17800   0.01726    0.00000 -79.99202   0.00286    19   20   21      1
    21  -0.09350  -0.03800   8.17800   0.01746    0.00000 -66.37062   0.00286    20   21   22      1
    22  -0.08550  -0.05350   8.17800   0.01749    0.00000 -59.03624   0.00286    21   22   23      1
    23  -0.07500  -0.06750   8.17800   0.01769    0.00000 -47.29061   0.00286    22   23   24      1
    24  -0.06250  -0.07950   8.17800   0.01703    0.00000 -40.23636   0.00286    23   24   25      1
    25  -0.04800  -0.08900   8.17800   0.01789    0.00000 -26.56505   0.00286    24   25   26      1
    26  -0.03200  -0.09550   8.17800   0.01676    0.00000 -17.35402   0.00286    25   26   27      1
    27  -0.01550  -0.09950   8.17800   0.01726    0.00000 -10.00798   0.00286    26   27   28      1
    28   0.00200  -0.10100   8.17800   0.01800    0.00000   0.00000   0.00286    27   28   29      1
    29   0.01950  -0.09900   8.17800   0.01746    0.00000  13.24052   0.00286    28   29   30      1
    30   0.03600  -0.09400   8.17800   0.01709    0.00000  20.55605   0.00286    29   30   31      1
    31   0.05150  -0.08650   8.17800   0.01749    0.00000  30.96376   0.00286    30   31   32      1
    32   0.06550  -0.07650   8.17800   0.01703    0.00000  40.23636   0.00286    31   32   33      1
    33   0.07750  -0.06450   8.17800   0.01703    0.00000  49.76364   0.00286    32   33   34      1
    34   0.08750  -0.05050   8.17800   0.01749    0.00000  59.03624   0.00286    33   34   35      1
    35   0.09500  -0.03450   8.17800   0.01803    0.00000  70.55997   0.00286    34   35   36      1
    36   0.09950  -0.01750   8.17800   0.01726    0.00000  79.99202   0.00286    35   36  -80    999
    37   0.10050   0.00850   8.00000   0.01703    0.00000  93.36646   0.00286   -73   37   38      2
    38   0.09750   0.02550   8.00000   0.01772    0.00000 106.38954   0.00286    37   38   39      2
    39   0.09150   0.04200   8.00000   0.01746    0.00000 113.62938   0.00286    38   39   40      2
    40   0.08300   0.05700   8.00000   0.01720    0.00000 125.53768   0.00286    39   40   41      2
    41   0.07200   0.07050   8.00000   0.01769    0.00000 132.70939   0.00286    40   41   42      2
    42   0.05900   0.08200   8.00000   0.01720    0.00000 144.46232   0.00286    41   42   43      2
    43   0.04400   0.09100   8.00000   0.01789    0.00000 153.43495   0.00286    42   43   44      2
    44   0.02800   0.09700   8.00000   0.01649    0.00000 165.96376   0.00286    43   44   45      2
    45   0.01100   0.10000   8.00000   0.01811    0.00000 173.65981   0.00286    44   45   46      2
    46  -0.00650   0.10050   8.00000   0.01703    0.00000-176.63354   0.00286    45   46   47      2
    47  -0.02350   0.09800   8.00000   0.01746    0.00000-166.75948   0.00286    46   47   48      2
    48  -0.04000   0.09250   8.00000   0.01746    0.00000-156.37062   0.00286    47   48   49      2
    49  -0.05550   0.08450   8.00000   0.01749    0.00000-149.03624   0.00286    48   49   50      2
    50  -0.06900   0.07400   8.00000   0.01697    0.00000-135.00000   0.00286    49   50   51      2
    51  -0.08050   0.06100   8.00000   0.01780    0.00000-128.15723   0.00286    50   51   52      2
    52  -0.09000   0.04600   8.00000   0.01789    0.00000-116.56505   0.00286    51   52   53      2
    53  -0.09650   0.03000   8.00000   0.01676    0.00000-107.35402   0.00286    52   53   54      2
    54  -0.10000   0.01350   8.00000   0.01712    0.00000 -96.70984   0.00286    53   54   55      2
    55  -0.10050  -0.00400   8.00000   0.01803    0.00000 -86.82017   0.00286    54   55   56      2
    56  -0.09850  -0.02150   8.00000   0.01726    0.00000 -79.99202   0.00286    55   56   57      2
    57  -0.09350  -0.03800   8.00000   0.01746    0.00000 -66.37062   0.00286    56   57   58      2
    58  -0.08550  -0.05350   8.00000   0.01749    0.00000 -59.03624   0.00286    57   58   59      2
    59  -0.07500  -0.06750   8.00000   0.01769    0.00000 -47.29061   0.00286    58   59   60      2
    60  -0.06250  -0.07950   8.00000   0.01703    0.00000 -40.23636   0.00286    59   60   61      2
    61  -0.04800  -0.08900   8.00000   0.01789    0.00000 -26.56505   0.00286    60   61   62      2
    62  -0.03200  -0.09550   8.00000   0.01676    0.00000 -17.35402   0.00286    61   62   63      2
    63  -0.01550  -0.09950   8.00000   0.01726    0.00000 -10.00798   0.00286    62   63   64      2
    64   0.00200  -0.10100   8.00000   0.01800    0.00000   0.00000   0.00286    63   64   65      2
    65   0.01950  -0.09900   8.00000   0.01746    0.00000  13.24052   0.00286    64   65   66      2
    66   0.03600  -0.09400   8.00000   0.01709    0.00000  20.55605   0.00286    65   66   67      2
    67   0.05150  -0.08650   8.00000   0.01749    0.00000  30.96376   0.00286    66   67   68      2
    68   0.06550  -0.07650   8.00000   0.01703    0.00000  40.23636   0.00286    67   68   69      2
    69   0.07750  -0.06450   8.00000   0.01703    0.00000  49.76364   0.00286    68   69   70      2
    70   0.08750  -0.05050   8.00000   0.01749    0.00000  59.03624   0.00286    69   70   71      2
    71   0.09500  -0.03450   8.00000   0.01803    0.00000  70.55997   0.00286    70   71   72      2
    72   0.09950  -0.01750   8.00000   0.01726    0.00000  79.99202   0.00286    71   72   77      2
    73   0.10100   0.00000   8.02225   0.04450   90.00000   0.00000   0.00286   -37   73   74      3
    74   0.10100   0.00000   8.06675   0.04450   90.00000   0.00000   0.00286    73   74   75      3
    75   0.10100   0.00000   8.11125   0.04450   90.00000   0.00000   0.00286    74   75   76      3
    76   0.10100   0.00000   8.15575   0.04450   90.00000   0.00000   0.00286    75   76    1      3
    77   0.10100  -0.00900   8.02225   0.04450   90.00000   0.00000   0.00286    72   77   78      4
    78   0.10100  -0.00900   8.06675   0.04450   90.00000   0.00000   0.00286    77   78   79      4
    79   0.10100  -0.00900   8.11125   0.04450   90.00000   0.00000   0.00286    78   79   80      4
    80   0.10100  -0.00900   8.15575   0.04450   90.00000   0.00000   0.00286    79   80  -36      4






 ***** DATA CARD NO.  1   GN   2     0     0     0  1.10000E+01  1.00000E-02  0.00000E+00  0.00000E+00  0.00000E+00  0.00000E+00
 ***** DATA CARD NO.  2   EK   0     0     0     0  0.00000E+00  0.00000E+00  0.00000E+00  0.00000E+00  0.00000E+00  0.00000E+00
 ***** DATA CARD NO.  3   LD   5     0     0     0  5.80000E+07  0.00000E+00  0.00000E+00  0.00000E+00  0.00000E+00  0.00000E+00
 ***** DATA CARD NO.  4   EX   0   999     1     0  1.00000E+00  0.00000E+00  0.00000E+00  0.00000E+00  0.00000E+00  0.00000E+00
 ***** DATA CARD NO.  5   FR   0     1     0     0  1.44200E+02  0.00000E+00  0.00000E+00  0.00000E+00  0.00000E+00  0.00000E+00
 ***** DATA CARD NO.  6   RP   0     1     1  1000  8.50000E+01  9.00000E+01  0.00000E+00  0.00000E+00  0.00000E+00  0.00000E+00




                                 - - - - - - FREQUENCY - - - - - -

                                    FREQUENCY= 1.4420E+02 MHZ
                                    WAVELENGTH= 2.0791E+00 METERS




                    APPROXIMATE INTEGRATION EMPLOYED FOR SEGMENTS MORE THAN   1.000 WAVELENGTHS APART

                    THE EXTENDED THIN WIRE KERNEL WILL BE USED



                               - - - STRUCTURE IMPEDANCE LOADING - - -


       LOCATION          RESISTANCE   INDUCTANCE  CAPACITANCE       IMPEDANCE (OHMS)     CONDUCTIVITY    TYPE
    ITAG FROM THRU          OHMS        HENRYS       FARADS        REAL      IMAGINARY    MHOS/METER

     ALL                                                                                 5.8000E+07     WIRE  



                                  - - - ANTENNA ENVIRONMENT - - -

                                        FINITE GROUND.  SOMMERFELD SOLUTION
                                        RELATIVE DIELECTRIC CONST.= 11.000
                                        CONDUCTIVITY= 1.000E-02 MHOS/METER
                                        COMPLEX DIELECTRIC CONSTANT= 1.10000E+01-1.24660E+00



                                - - - MATRIX TIMING - - -

                        FILL=    0.016 SEC.,  FACTOR=    0.000 SEC.



                                          - - - ANTENNA INPUT PARAMETERS - - -

   TAG   SEG.    VOLTAGE (VOLTS)         CURRENT (AMPS)         IMPEDANCE (OHMS)        ADMITTANCE (MHOS)      POWER
   NO.   NO.    REAL        IMAG.       REAL        IMAG.       REAL        IMAG.       REAL        IMAG.     (WATTS)
   999    36 1.00000E+00 0.00000E+00 4.54457E-02-5.08120E-03 2.17326E+01 2.42989E+00 4.54457E-02-5.08120E-03 2.27228E-02



                             - - - CURRENTS AND LOCATION - - -

                                 DISTANCES IN WAVELENGTHS


  SEG.  TAG    COORD. OF SEG. CENTER     SEG.            - - - CURRENT (AMPS) - - -
  NO.   NO.     X        Y        Z      LENGTH     REAL        IMAG.       MAG.        PHASE
     1    1   0.0483   0.0041   3.9335  0.00819   4.5204E-02 -1.0204E-02  4.6342E-02  -12.720
     2    1   0.0469   0.0123   3.9335  0.00852   4.9581E-02 -1.0890E-02  5.0763E-02  -12.388
     3    1   0.0440   0.0202   3.9335  0.00840   5.3153E-02 -1.1445E-02  5.4371E-02  -12.151
     4    1   0.0399   0.0274   3.9335  0.00828   5.6257E-02 -1.1920E-02  5.7506E-02  -11.963
     5    1   0.0346   0.0339   3.9335  0.00851   5.9069E-02 -1.2344E-02  6.0345E-02  -11.804
     6    1   0.0284   0.0394   3.9335  0.00828   6.1616E-02 -1.2721E-02  6.2915E-02  -11.665
     7    1   0.0212   0.0438   3.9335  0.00860   6.3942E-02 -1.3056E-02  6.5261E-02  -11.540
     8    1   0.0135   0.0467   3.9335  0.00793   6.6008E-02 -1.3344E-02  6.7343E-02  -11.429
     9    1   0.0053   0.0481   3.9335  0.00871   6.7886E-02 -1.3595E-02  6.9234E-02  -11.324
    10    1  -0.0031   0.0483   3.9335  0.00819   6.9595E-02 -1.3809E-02  7.0952E-02  -11.223
    11    1  -0.0113   0.0471   3.9335  0.00840   7.1081E-02 -1.3979E-02  7.2443E-02  -11.126
    12    1  -0.0192   0.0445   3.9335  0.00840   7.2397E-02 -1.4112E-02  7.3759E-02  -11.030
    13    1  -0.0267   0.0406   3.9335  0.00841   7.3524E-02 -1.4203E-02  7.4883E-02  -10.934
    14    1  -0.0332   0.0356   3.9335  0.00816   7.4451E-02 -1.4252E-02  7.5803E-02  -10.837
    15    1  -0.0387   0.0293   3.9335  0.00856   7.5202E-02 -1.4261E-02  7.6542E-02  -10.738
    16    1  -0.0433   0.0221   3.9335  0.00860   7.5780E-02 -1.4225E-02  7.7103E-02  -10.632
    17    1  -0.0464   0.0144   3.9335  0.00806   7.6155E-02 -1.4149E-02  7.7458E-02  -10.525
    18    1  -0.0481   0.0065   3.9335  0.00823   7.6344E-02 -1.4033E-02  7.7623E-02  -10.415
    19    1  -0.0483  -0.0019   3.9335  0.00867   7.6355E-02 -1.3871E-02  7.7604E-02  -10.296
    20    1  -0.0474  -0.0103   3.9335  0.00830   7.6176E-02 -1.3666E-02  7.7392E-02  -10.171
    21    1  -0.0450  -0.0183   3.9335  0.00840   7.5815E-02 -1.3423E-02  7.6994E-02  -10.040
    22    1  -0.0411  -0.0257   3.9335  0.00841   7.5265E-02 -1.3138E-02  7.6403E-02   -9.902
    23    1  -0.0361  -0.0325   3.9335  0.00851   7.4522E-02 -1.2811E-02  7.5615E-02   -9.754
    24    1  -0.0301  -0.0382   3.9335  0.00819   7.3603E-02 -1.2450E-02  7.4648E-02   -9.601
    25    1  -0.0231  -0.0428   3.9335  0.00860   7.2490E-02 -1.2050E-02  7.3485E-02   -9.438
    26    1  -0.0154  -0.0459   3.9335  0.00806   7.1199E-02 -1.1618E-02  7.2141E-02   -9.267
    27    1  -0.0075  -0.0479   3.9335  0.00830   6.9748E-02 -1.1160E-02  7.0635E-02   -9.091
    28    1   0.0010  -0.0486   3.9335  0.00866   6.8049E-02 -1.0652E-02  6.8877E-02   -8.896
    29    1   0.0094  -0.0476   3.9335  0.00840   6.6135E-02 -1.0106E-02  6.6903E-02   -8.688
    30    1   0.0173  -0.0452   3.9335  0.00822   6.4065E-02 -9.5410E-03  6.4772E-02   -8.471
    31    1   0.0248  -0.0416   3.9335  0.00841   6.1779E-02 -8.9423E-03  6.2423E-02   -8.236
    32    1   0.0315  -0.0368   3.9335  0.00819   5.9267E-02 -8.3085E-03  5.9846E-02   -7.980
    33    1   0.0373  -0.0310   3.9335  0.00819   5.6535E-02 -7.6427E-03  5.7049E-02   -7.699
    34    1   0.0421  -0.0243   3.9335  0.00841   5.3461E-02 -6.9160E-03  5.3906E-02   -7.371
    35    1   0.0457  -0.0166   3.9335  0.00867   4.9877E-02 -6.0788E-03  5.0247E-02   -6.949
    36  999   0.0479  -0.0084   3.9335  0.00830   4.5446E-02 -5.0812E-03  4.5729E-02   -6.380
    37    2   0.0483   0.0041   3.8479  0.00819   4.5436E-02 -4.0186E-03  4.5613E-02   -5.054
    38    2   0.0469   0.0123   3.8479  0.00852   4.9804E-02 -4.7648E-03  5.0031E-02   -5.465
    39    2   0.0440   0.0202   3.8479  0.00840   5.3367E-02 -5.4082E-03  5.3640E-02   -5.787
    40    2   0.0399   0.0274   3.8479  0.00828   5.6461E-02 -5.9936E-03  5.6778E-02   -6.060
    41    2   0.0346   0.0339   3.8479  0.00851   5.9262E-02 -6.5475E-03  5.9622E-02   -6.305
    42    2   0.0284   0.0394   3.8479  0.00828   6.1797E-02 -7.0725E-03  6.2201E-02   -6.529
    43    2   0.0212   0.0438   3.8479  0.00860   6.4111E-02 -7.5741E-03  6.4557E-02   -6.738
    44    2   0.0135   0.0467   3.8479  0.00793   6.6165E-02 -8.0411E-03  6.6652E-02   -6.929
    45    2   0.0053   0.0481   3.8479  0.00871   6.8030E-02 -8.4860E-03  6.8557E-02   -7.110
    46    2  -0.0031   0.0483   3.8479  0.00819   6.9725E-02 -8.9122E-03  7.0292E-02   -7.284
    47    2  -0.0113   0.0471   3.8479  0.00840   7.1198E-02 -9.3046E-03  7.1803E-02   -7.446
    48    2  -0.0192   0.0445   3.8479  0.00840   7.2499E-02 -9.6743E-03  7.3141E-02   -7.601
    49    2  -0.0267   0.0406   3.8479  0.00841   7.3611E-02 -1.0015E-02  7.4289E-02   -7.748
    50    2  -0.0332   0.0356   3.8479  0.00816   7.4523E-02 -1.0322E-02  7.5235E-02   -7.886
    51    2  -0.0387   0.0293   3.8479  0.00856   7.5259E-02 -1.0600E-02  7.6001E-02   -8.017
    52    2  -0.0433   0.0221   3.8479  0.00860   7.5821E-02 -1.0852E-02  7.6593E-02   -8.145
    53    2  -0.0464   0.0144   3.8479  0.00806   7.6180E-02 -1.1063E-02  7.6979E-02   -8.263
    54    2  -0.0481   0.0065   3.8479  0.00823   7.6354E-02 -1.1236E-02  7.7176E-02   -8.371
    55    2  -0.0483  -0.0019   3.8479  0.00867   7.6348E-02 -1.1380E-02  7.7192E-02   -8.478
    56    2  -0.0474  -0.0103   3.8479  0.00830   7.6153E-02 -1.1489E-02  7.7015E-02   -8.580
    57    2  -0.0450  -0.0183   3.8479  0.00840   7.5776E-02 -1.1561E-02  7.6653E-02   -8.675
    58    2  -0.0411  -0.0257   3.8479  0.00841   7.5210E-02 -1.1597E-02  7.6099E-02   -8.766
    59    2  -0.0361  -0.0325   3.8479  0.00851   7.4451E-02 -1.1598E-02  7.5349E-02   -8.854
    60    2  -0.0301  -0.0382   3.8479  0.00819   7.3516E-02 -1.1563E-02  7.4420E-02   -8.938
    61    2  -0.0231  -0.0428   3.8479  0.00860   7.2388E-02 -1.1492E-02  7.3295E-02   -9.021
    62    2  -0.0154  -0.0459   3.8479  0.00806   7.1082E-02 -1.1388E-02  7.1988E-02   -9.102
    63    2  -0.0075  -0.0479   3.8479  0.00830   6.9616E-02 -1.1252E-02  7.0519E-02   -9.182
    64    2   0.0010  -0.0486   3.8479  0.00866   6.7902E-02 -1.1078E-02  6.8800E-02   -9.266
    65    2   0.0094  -0.0476   3.8479  0.00840   6.5975E-02 -1.0867E-02  6.6864E-02   -9.353
    66    2   0.0173  -0.0452   3.8479  0.00822   6.3892E-02 -1.0626E-02  6.4769E-02   -9.443
    67    2   0.0248  -0.0416   3.8479  0.00841   6.1593E-02 -1.0351E-02  6.2457E-02   -9.539
    68    2   0.0315  -0.0368   3.8479  0.00819   5.9069E-02 -1.0038E-02  5.9916E-02   -9.645
    69    2   0.0373  -0.0310   3.8479  0.00819   5.6326E-02 -9.6892E-03  5.7153E-02   -9.760
    70    2   0.0421  -0.0243   3.8479  0.00841   5.3241E-02 -9.2864E-03  5.4045E-02   -9.894
    71    2   0.0457  -0.0166   3.8479  0.00867   4.9648E-02 -8.8047E-03  5.0423E-02  -10.056
    72    2   0.0479  -0.0084   3.8479  0.00830   4.5208E-02 -8.1856E-03  4.5943E-02  -10.263
    73    3   0.0486   0.0000   3.8586  0.02140  -3.2617E-02  1.9753E-03  3.2676E-02  176.534
    74    3   0.0486   0.0000   3.8800  0.02140  -1.1168E-02 -1.4041E-03  1.1256E-02 -172.834
    75    3   0.0486   0.0000   3.9014  0.02140   1.0922E-02 -4.8592E-03  1.1954E-02  -23.985
    76    3   0.0486   0.0000   3.9228  0.02140   3.2377E-02 -8.1981E-03  3.3399E-02  -14.209
    77    4   0.0486  -0.0043   3.8586  0.02140   3.2356E-02 -6.2904E-03  3.2962E-02  -11.002
    78    4   0.0486  -0.0043   3.8800  0.02140   1.0914E-02 -3.1090E-03  1.1348E-02  -15.901
    79    4   0.0486  -0.0043   3.9014  0.02140  -1.1167E-02  1.5898E-04  1.1168E-02  179.184
    80    4   0.0486  -0.0043   3.9228  0.02140  -3.2603E-02  3.2775E-03  3.2767E-02  174.259



                                        - - - POWER BUDGET - - -

                                           INPUT POWER   = 2.2723E-02 WATTS
                                           RADIATED POWER= 2.2205E-02 WATTS
                                           STRUCTURE LOSS= 5.1749E-04 WATTS
                                           NETWORK LOSS  = 0.0000E+00 WATTS
                                           EFFICIENCY    =  97.72 PERCENT



                                                - - - RADIATION PATTERNS - - -

  - - ANGLES - -           - POWER GAINS -       - - - POLARIZATION - - -    - - - E(THETA) - - -    - - - E(PHI) - - -
  THETA     PHI        VERT.   HOR.    TOTAL      AXIAL     TILT   SENSE     MAGNITUDE    PHASE      MAGNITUDE    PHASE 
 DEGREES  DEGREES       DB      DB      DB        RATIO     DEG.              VOLTS/M    DEGREES      VOLTS/M    DEGREES
   85.00    90.00     -24.51    4.41    4.41    0.03040    88.91  RIGHT     6.94807E-02   138.16    1.93846E+00    80.11






 ***** DATA CARD NO.  7   EN   0     1     1  1000  8.50000E+01  9.00000E+01  0.00000E+00  0.00000E+00  0.00000E+00  0.00000E+00

 RUN TIME =     0.094
