1



                                 *********************************************

                                    NUMERICAL ELECTROMAGNETICS CODE (NEC-2D)

                                 *********************************************




                                     - - - - COMMENTS - - - -


                          No comments specified                                                      
                                                                                                     




                                 - - - STRUCTURE SPECIFICATION - - -

                                     COORDINATES MUST BE INPUT IN
                                     METERS OR BE SCALED TO METERS
                                     BEFORE STRUCTURE INPUT IS ENDED


  WIRE                                                                               NO. OF    FIRST  LAST     TAG
  NO.        X1         Y1         Z1          X2         Y2         Z2      RADIUS   SEG.     SEG.   SEG.     NO.
     1    0.06800    0.00000    0.00000     0.06700    0.01200    0.00200    0.00085      1        1     1       1
     2    0.06700    0.01200    0.00200     0.06400    0.02300    0.00400    0.00085      1        2     2       1
     3    0.06400    0.02300    0.00400     0.05900    0.03400    0.00600    0.00085      1        3     3       1
     4    0.05900    0.03400    0.00600     0.05200    0.04300    0.00800    0.00085      1        4     4       1
     5    0.05200    0.04300    0.00800     0.04300    0.05200    0.01000    0.00085      1        5     5       1
     6    0.04300    0.05200    0.01000     0.03400    0.05900    0.01300    0.00085      1        6     6       1
     7    0.03400    0.05900    0.01300     0.02300    0.06400    0.01500    0.00085      1        7     7       1
     8    0.02300    0.06400    0.01500     0.01200    0.06700    0.01700    0.00085      1        8     8       1
     9    0.01200    0.06700    0.01700     0.00000    0.06800    0.01900    0.00085      1        9     9       1
    10    0.00000    0.06800    0.01900    -0.01200    0.06700    0.02100    0.00085      1       10    10       1
    11   -0.01200    0.06700    0.02100    -0.02300    0.06400    0.02300    0.00085      1       11    11       1
    12   -0.02300    0.06400    0.02300    -0.03400    0.05900    0.02500    0.00085      1       12    12       1
    13   -0.03400    0.05900    0.02500    -0.04300    0.05200    0.02700    0.00085      1       13    13       1
    14   -0.04300    0.05200    0.02700    -0.05200    0.04300    0.02900    0.00085      1       14    14       1
    15   -0.05200    0.04300    0.02900    -0.05900    0.03400    0.03100    0.00085      1       15    15       1
    16   -0.05900    0.03400    0.03100    -0.06400    0.02300    0.03400    0.00085      1       16    16       1
    17   -0.06400    0.02300    0.03400    -0.06700    0.01200    0.03600    0.00085      1       17    17       1
    18   -0.06700    0.01200    0.03600    -0.06800    0.00000    0.03800    0.00085      1       18    18       1
    19   -0.06800    0.00000    0.03800    -0.06700   -0.01200    0.04000    0.00085      1       19    19       1
    20   -0.06700   -0.01200    0.04000    -0.06400   -0.02300    0.04200    0.00085      1       20    20       1
    21   -0.06400   -0.02300    0.04200    -0.05900   -0.03400    0.04400    0.00085      1       21    21       1
    22   -0.05900   -0.03400    0.04400    -0.05200   -0.04300    0.04600    0.00085      1       22    22       1
    23   -0.05200   -0.04300    0.04600    -0.04300   -0.05200    0.04800    0.00085      1       23    23       1
    24   -0.04300   -0.05200    0.04800    -0.03400   -0.05900    0.05000    0.00085      1       24    24       1
    25   -0.03400   -0.05900    0.05000    -0.02300   -0.06400    0.05200    0.00085      1       25    25       1
    26   -0.02300   -0.06400    0.05200    -0.01200   -0.06700    0.05400    0.00085      1       26    26       1
    27   -0.01200   -0.06700    0.05400     0.00000   -0.06800    0.05700    0.00085      1       27    27       1
    28    0.00000   -0.06800    0.05700     0.01200   -0.06700    0.05900    0.00085      1       28    28       1
    29    0.01200   -0.06700    0.05900     0.02300   -0.06400    0.06100    0.00085      1       29    29       1
    30    0.02300   -0.06400    0.06100     0.03400   -0.05900    0.06300    0.00085      1       30    30       1
    31    0.03400   -0.05900    0.06300     0.04300   -0.05200    0.06500    0.00085      1       31    31       1
    32    0.04300   -0.05200    0.06500     0.05200   -0.04300    0.06700    0.00085      1       32    32       1
    33    0.05200   -0.04300    0.06700     0.05900   -0.03400    0.06900    0.00085      1       33    33       1
    34    0.05900   -0.03400    0.06900     0.06400   -0.02300    0.07100    0.00085      1       34    34       1
    35    0.06400   -0.02300    0.07100     0.06700   -0.01200    0.07300    0.00085      1       35    35       1
    36    0.06700   -0.01200    0.07300     0.06800    0.00000    0.07500    0.00085      1       36    36       1
    37    0.06800    0.00000    0.07500     0.06700    0.01200    0.07700    0.00085      1       37    37       1
    38    0.06700    0.01200    0.07700     0.06400    0.02300    0.08000    0.00085      1       38    38       1
    39    0.06400    0.02300    0.08000     0.05900    0.03400    0.08200    0.00085      1       39    39       1
    40    0.05900    0.03400    0.08200     0.05200    0.04300    0.08400    0.00085      1       40    40       1
    41    0.05200    0.04300    0.08400     0.04300    0.05200    0.08600    0.00085      1       41    41       1
    42    0.04300    0.05200    0.08600     0.03400    0.05900    0.08800    0.00085      1       42    42       1
    43    0.03400    0.05900    0.08800     0.02300    0.06400    0.09000    0.00085      1       43    43       1
    44    0.02300    0.06400    0.09000     0.01200    0.06700    0.09200    0.00085      1       44    44       1
    45    0.01200    0.06700    0.09200     0.00000    0.06800    0.09400    0.00085      1       45    45       1
    46    0.00000    0.06800    0.09400    -0.01200    0.06700    0.09600    0.00085      1       46    46       1
    47   -0.01200    0.06700    0.09600    -0.02300    0.06400    0.09800    0.00085      1       47    47       1
    48   -0.02300    0.06400    0.09800    -0.03400    0.05900    0.10100    0.00085      1       48    48       1
    49   -0.03400    0.05900    0.10100    -0.04300    0.05200    0.10300    0.00085      1       49    49       1
    50   -0.04300    0.05200    0.10300    -0.05200    0.04300    0.10500    0.00085      1       50    50       1
    51   -0.05200    0.04300    0.10500    -0.05900    0.03400    0.10700    0.00085      1       51    51       1
    52   -0.05900    0.03400    0.10700    -0.06400    0.02300    0.10900    0.00085      1       52    52       1
    53   -0.06400    0.02300    0.10900    -0.06700    0.01200    0.11100    0.00085      1       53    53       1
    54   -0.06700    0.01200    0.11100    -0.06800    0.00000    0.11300    0.00085      1       54    54       1
    55   -0.06800    0.00000    0.11300    -0.06700   -0.01200    0.11500    0.00085      1       55    55       1
    56   -0.06700   -0.01200    0.11500    -0.06400   -0.02300    0.11700    0.00085      1       56    56       1
    57   -0.06400   -0.02300    0.11700    -0.05900   -0.03400    0.11900    0.00085      1       57    57       1
    58   -0.05900   -0.03400    0.11900    -0.05200   -0.04300    0.12100    0.00085      1       58    58       1
    59   -0.05200   -0.04300    0.12100    -0.04300   -0.05200    0.12400    0.00085      1       59    59       1
    60   -0.04300   -0.05200    0.12400    -0.03400   -0.05900    0.12600    0.00085      1       60    60       1
    61   -0.03400   -0.05900    0.12600    -0.02300   -0.06400    0.12800    0.00085      1       61    61       1
    62   -0.02300   -0.06400    0.12800    -0.01200   -0.06700    0.13000    0.00085      1       62    62       1
    63   -0.01200   -0.06700    0.13000     0.00000   -0.06800    0.13200    0.00085      1       63    63       1
    64    0.00000   -0.06800    0.13200     0.01200   -0.06700    0.13400    0.00085      1       64    64       1
    65    0.01200   -0.06700    0.13400     0.02300   -0.06400    0.13600    0.00085      1       65    65       1
    66    0.02300   -0.06400    0.13600     0.03400   -0.05900    0.13800    0.00085      1       66    66       1
    67    0.03400   -0.05900    0.13800     0.04300   -0.05200    0.14000    0.00085      1       67    67       1
    68    0.04300   -0.05200    0.14000     0.05200   -0.04300    0.14200    0.00085      1       68    68       1
    69    0.05200   -0.04300    0.14200     0.05900   -0.03400    0.14400    0.00085      1       69    69       1
    70    0.05900   -0.03400    0.14400     0.06400   -0.02300    0.14700    0.00085      1       70    70       1
    71    0.06400   -0.02300    0.14700     0.06700   -0.01200    0.14900    0.00085      1       71    71       1
    72    0.06700   -0.01200    0.14900     0.06800    0.00000    0.15100    0.00085      1       72    72       1
    73    0.06400    0.00000    0.09000     0.06300    0.00600    0.09000    0.00100      1       73    73     999
    74    0.06300    0.00600    0.09000     0.06100    0.01200    0.09000    0.00100      1       74    74       4
    75    0.06100    0.01200    0.09000     0.05900    0.01800    0.09000    0.00100      1       75    75       4
    76    0.05900    0.01800    0.09000     0.05500    0.02300    0.09000    0.00100      1       76    76       4
    77    0.05500    0.02300    0.09000     0.05100    0.02700    0.09000    0.00100      1       77    77       4
    78    0.05100    0.02700    0.09000     0.04600    0.03100    0.09000    0.00100      1       78    78       4
    79    0.04600    0.03100    0.09000     0.04000    0.03300    0.09000    0.00100      1       79    79       4
    80    0.04000    0.03300    0.09000     0.03400    0.03500    0.09000    0.00100      1       80    80       4
    81    0.03400    0.03500    0.09000     0.02800    0.03500    0.09000    0.00100      1       81    81       4
    82    0.02800    0.03500    0.09000     0.02200    0.03500    0.09000    0.00100      1       82    82       4
    83    0.02200    0.03500    0.09000     0.01600    0.03300    0.09000    0.00100      1       83    83       4
    84    0.01600    0.03300    0.09000     0.01100    0.03100    0.09000    0.00100      1       84    84       4
    85    0.01100    0.03100    0.09000     0.00600    0.02700    0.09000    0.00100      1       85    85       4
    86    0.00600    0.02700    0.09000     0.00100    0.02300    0.09000    0.00100      1       86    86       4
    87    0.00100    0.02300    0.09000    -0.00200    0.01800    0.09000    0.00100      1       87    87       4
    88   -0.00200    0.01800    0.09000    -0.00500    0.01200    0.09000    0.00100      1       88    88       4
    89   -0.00500    0.01200    0.09000    -0.00600    0.00600    0.09000    0.00100      1       89    89       4
    90   -0.00600    0.00600    0.09000    -0.00700    0.00000    0.09000    0.00100      1       90    90       4
    91   -0.00700    0.00000    0.09000    -0.00600   -0.00600    0.09000    0.00100      1       91    91       4
    92   -0.00600   -0.00600    0.09000    -0.00500   -0.01200    0.09000    0.00100      1       92    92       4
    93   -0.00500   -0.01200    0.09000    -0.00200   -0.01800    0.09000    0.00100      1       93    93       4
    94   -0.00200   -0.01800    0.09000     0.00100   -0.02300    0.09000    0.00100      1       94    94       4
    95    0.00100   -0.02300    0.09000     0.00600   -0.02700    0.09000    0.00100      1       95    95       4
    96    0.00600   -0.02700    0.09000     0.01100   -0.03100    0.09000    0.00100      1       96    96       4
    97    0.01100   -0.03100    0.09000     0.01600   -0.03300    0.09000    0.00100      1       97    97       4
    98    0.01600   -0.03300    0.09000     0.02200   -0.03500    0.09000    0.00100      1       98    98       4
    99    0.02200   -0.03500    0.09000     0.02800   -0.03500    0.09000    0.00100      1       99    99       4
   100    0.02800   -0.03500    0.09000     0.03400   -0.03500    0.09000    0.00100      1      100   100       4
   101    0.03400   -0.03500    0.09000     0.04000   -0.03300    0.09000    0.00100      1      101   101       4
   102    0.04000   -0.03300    0.09000     0.04600   -0.03100    0.09000    0.00100      1      102   102       4
   103    0.04600   -0.03100    0.09000     0.05100   -0.02700    0.09000    0.00100      1      103   103       4
   104    0.05100   -0.02700    0.09000     0.05500   -0.02300    0.09000    0.00100      1      104   104       4
   105    0.05500   -0.02300    0.09000     0.05900   -0.01800    0.09000    0.00100      1      105   105       4
   106    0.05900   -0.01800    0.09000     0.06100   -0.01200    0.09000    0.00100      1      106   106       4
   107    0.06100   -0.01200    0.09000     0.06300   -0.00600    0.09000    0.00100      1      107   107       4
   108    0.06300   -0.00600    0.09000     0.06400    0.00000    0.09000    0.00100      1      108   108       4
   109    0.06800    0.00000    0.28700     0.06700   -0.01200    0.28900    0.00085      1      109   109       2
   110    0.06700   -0.01200    0.28900     0.06400   -0.02300    0.29100    0.00085      1      110   110       2
   111    0.06400   -0.02300    0.29100     0.05900   -0.03400    0.29300    0.00085      1      111   111       2
   112    0.05900   -0.03400    0.29300     0.05200   -0.04300    0.29500    0.00085      1      112   112       2
   113    0.05200   -0.04300    0.29500     0.04300   -0.05200    0.29700    0.00085      1      113   113       2
   114    0.04300   -0.05200    0.29700     0.03400   -0.05900    0.29900    0.00085      1      114   114       2
   115    0.03400   -0.05900    0.29900     0.02300   -0.06400    0.30200    0.00085      1      115   115       2
   116    0.02300   -0.06400    0.30200     0.01200   -0.06700    0.30400    0.00085      1      116   116       2
   117    0.01200   -0.06700    0.30400     0.00000   -0.06800    0.30600    0.00085      1      117   117       2
   118    0.00000   -0.06800    0.30600    -0.01200   -0.06700    0.30800    0.00085      1      118   118       2
   119   -0.01200   -0.06700    0.30800    -0.02300   -0.06400    0.31000    0.00085      1      119   119       2
   120   -0.02300   -0.06400    0.31000    -0.03400   -0.05900    0.31200    0.00085      1      120   120       2
   121   -0.03400   -0.05900    0.31200    -0.04300   -0.05200    0.31400    0.00085      1      121   121       2
   122   -0.04300   -0.05200    0.31400    -0.05200   -0.04300    0.31600    0.00085      1      122   122       2
   123   -0.05200   -0.04300    0.31600    -0.05900   -0.03400    0.31800    0.00085      1      123   123       2
   124   -0.05900   -0.03400    0.31800    -0.06400   -0.02300    0.32000    0.00085      1      124   124       2
   125   -0.06400   -0.02300    0.32000    -0.06700   -0.01200    0.32200    0.00085      1      125   125       2
   126   -0.06700   -0.01200    0.32200    -0.06800    0.00000    0.32500    0.00085      1      126   126       2
   127   -0.06800    0.00000    0.32500    -0.06700    0.01200    0.32700    0.00085      1      127   127       2
   128   -0.06700    0.01200    0.32700    -0.06400    0.02300    0.32900    0.00085      1      128   128       2
   129   -0.06400    0.02300    0.32900    -0.05900    0.03400    0.33100    0.00085      1      129   129       2
   130   -0.05900    0.03400    0.33100    -0.05200    0.04300    0.33300    0.00085      1      130   130       2
   131   -0.05200    0.04300    0.33300    -0.04300    0.05200    0.33500    0.00085      1      131   131       2
   132   -0.04300    0.05200    0.33500    -0.03400    0.05900    0.33700    0.00085      1      132   132       2
   133   -0.03400    0.05900    0.33700    -0.02300    0.06400    0.33900    0.00085      1      133   133       2
   134   -0.02300    0.06400    0.33900    -0.01200    0.06700    0.34100    0.00085      1      134   134       2
   135   -0.01200    0.06700    0.34100     0.00000    0.06800    0.34300    0.00085      1      135   135       2
   136    0.00000    0.06800    0.34300     0.01200    0.06700    0.34500    0.00085      1      136   136       2
   137    0.01200    0.06700    0.34500     0.02300    0.06400    0.34800    0.00085      1      137   137       2
   138    0.02300    0.06400    0.34800     0.03400    0.05900    0.35000    0.00085      1      138   138       2
   139    0.03400    0.05900    0.35000     0.04300    0.05200    0.35200    0.00085      1      139   139       2
   140    0.04300    0.05200    0.35200     0.05200    0.04300    0.35400    0.00085      1      140   140       2
   141    0.05200    0.04300    0.35400     0.05900    0.03400    0.35600    0.00085      1      141   141       2
   142    0.05900    0.03400    0.35600     0.06400    0.02300    0.35800    0.00085      1      142   142       2
   143    0.06400    0.02300    0.35800     0.06700    0.01200    0.36000    0.00085      1      143   143       2
   144    0.06700    0.01200    0.36000     0.06800    0.00000    0.36200    0.00085      1      144   144       2
   145    0.06800    0.00000    0.36200     0.06700   -0.01200    0.36400    0.00085      1      145   145       2
   146    0.06700   -0.01200    0.36400     0.06400   -0.02300    0.36600    0.00085      1      146   146       2
   147    0.06400   -0.02300    0.36600     0.05900   -0.03400    0.36900    0.00085      1      147   147       2
   148    0.05900   -0.03400    0.36900     0.05200   -0.04300    0.37100    0.00085      1      148   148       2
   149    0.05200   -0.04300    0.37100     0.04300   -0.05200    0.37300    0.00085      1      149   149       2
   150    0.04300   -0.05200    0.37300     0.03400   -0.05900    0.37500    0.00085      1      150   150       2
   151    0.03400   -0.05900    0.37500     0.02300   -0.06400    0.37700    0.00085      1      151   151       2
   152    0.02300   -0.06400    0.37700     0.01200   -0.06700    0.37900    0.00085      1      152   152       2
   153    0.01200   -0.06700    0.37900     0.00000   -0.06800    0.38100    0.00085      1      153   153       2
   154    0.00000   -0.06800    0.38100    -0.01200   -0.06700    0.38300    0.00085      1      154   154       2
   155   -0.01200   -0.06700    0.38300    -0.02300   -0.06400    0.38500    0.00085      1      155   155       2
   156   -0.02300   -0.06400    0.38500    -0.03400   -0.05900    0.38700    0.00085      1      156   156       2
   157   -0.03400   -0.05900    0.38700    -0.04300   -0.05200    0.38900    0.00085      1      157   157       2
   158   -0.04300   -0.05200    0.38900    -0.05200   -0.04300    0.39200    0.00085      1      158   158       2
   159   -0.05200   -0.04300    0.39200    -0.05900   -0.03400    0.39400    0.00085      1      159   159       2
   160   -0.05900   -0.03400    0.39400    -0.06400   -0.02300    0.39600    0.00085      1      160   160       2
   161   -0.06400   -0.02300    0.39600    -0.06700   -0.01200    0.39800    0.00085      1      161   161       2
   162   -0.06700   -0.01200    0.39800    -0.06800    0.00000    0.40000    0.00085      1      162   162       2
   163   -0.06800    0.00000    0.40000    -0.06700    0.01200    0.40200    0.00085      1      163   163       2
   164   -0.06700    0.01200    0.40200    -0.06400    0.02300    0.40400    0.00085      1      164   164       2
   165   -0.06400    0.02300    0.40400    -0.05900    0.03400    0.40600    0.00085      1      165   165       2
   166   -0.05900    0.03400    0.40600    -0.05200    0.04300    0.40800    0.00085      1      166   166       2
   167   -0.05200    0.04300    0.40800    -0.04300    0.05200    0.41000    0.00085      1      167   167       2
   168   -0.04300    0.05200    0.41000    -0.03400    0.05900    0.41200    0.00085      1      168   168       2
   169   -0.03400    0.05900    0.41200    -0.02300    0.06400    0.41500    0.00085      1      169   169       2
   170   -0.02300    0.06400    0.41500    -0.01200    0.06700    0.41700    0.00085      1      170   170       2
   171   -0.01200    0.06700    0.41700     0.00000    0.06800    0.41900    0.00085      1      171   171       2
   172    0.00000    0.06800    0.41900     0.01200    0.06700    0.42100    0.00085      1      172   172       2
   173    0.01200    0.06700    0.42100     0.02300    0.06400    0.42300    0.00085      1      173   173       2
   174    0.02300    0.06400    0.42300     0.03400    0.05900    0.42500    0.00085      1      174   174       2
   175    0.03400    0.05900    0.42500     0.04300    0.05200    0.42700    0.00085      1      175   175       2
   176    0.04300    0.05200    0.42700     0.05200    0.04300    0.42900    0.00085      1      176   176       2
   177    0.05200    0.04300    0.42900     0.05900    0.03400    0.43100    0.00085      1      177   177       2
   178    0.05900    0.03400    0.43100     0.06400    0.02300    0.43300    0.00085      1      178   178       2
   179    0.06400    0.02300    0.43300     0.06700    0.01200    0.43600    0.00085      1      179   179       2
   180    0.06700    0.01200    0.43600     0.06800    0.00000    0.43800    0.00085      1      180   180       2
   181    0.06800    0.00000    0.15100     0.06800    0.00000    0.28700    0.00085      3      181   183       3
      THE STRUCTURE HAS BEEN MOVED, MOVE DATA CARD IS -
        0    0   0.00000   0.00000   0.00000   0.00000   0.00000   8.00000   0.00000

   GROUND PLANE SPECIFIED.

   WHERE WIRE ENDS TOUCH GROUND, CURRENT WILL BE INTERPOLATED TO IMAGE IN GROUND PLANE.


   TOTAL SEGMENTS USED=  183     NO. SEG. IN A SYMMETRIC CELL=  183     SYMMETRY FLAG=  0


         - MULTIPLE WIRE JUNCTIONS -
 JUNCTION    SEGMENTS  (- FOR END 1, + FOR END 2)
  NONE




                                 - - - - SEGMENTATION DATA - - - -

                                        COORDINATES IN METERS

                         I+ AND I- INDICATE THE SEGMENTS BEFORE AND AFTER I


  SEG.   COORDINATES OF SEG. CENTER     SEG.     ORIENTATION ANGLES    WIRE    CONNECTION DATA   TAG
  NO.       X         Y         Z       LENGTH     ALPHA     BETA      RADIUS    I-   I    I+    NO.
     1   0.06750   0.00600   8.00100   0.01221    9.43023  94.76364   0.00085     0    1    2      1
     2   0.06550   0.01750   8.00300   0.01158    9.94913 105.25512   0.00085     1    2    3      1
     3   0.06150   0.02850   8.00500   0.01225    9.39845 114.44395   0.00085     2    3    4      1
     4   0.05550   0.03850   8.00700   0.01158    9.94913 127.87498   0.00085     3    4    5      1
     5   0.04750   0.04750   8.00900   0.01288    8.93014 135.00000   0.00085     4    5    6      1
     6   0.03850   0.05550   8.01150   0.01179   14.74139 142.12502   0.00085     5    6    7      1
     7   0.02850   0.06150   8.01400   0.01225    9.39845 155.55605   0.00085     6    7    8      1
     8   0.01750   0.06550   8.01600   0.01158    9.94913 164.74488   0.00085     7    8    9      1
     9   0.00600   0.06750   8.01800   0.01221    9.43023 175.23636   0.00085     8    9   10      1
    10  -0.00600   0.06750   8.02000   0.01221    9.43023-175.23636   0.00085     9   10   11      1
    11  -0.01750   0.06550   8.02200   0.01158    9.94913-164.74488   0.00085    10   11   12      1
    12  -0.02850   0.06150   8.02400   0.01225    9.39845-155.55605   0.00085    11   12   13      1
    13  -0.03850   0.05550   8.02600   0.01158    9.94913-142.12502   0.00085    12   13   14      1
    14  -0.04750   0.04750   8.02800   0.01288    8.93014-135.00000   0.00085    13   14   15      1
    15  -0.05550   0.03850   8.03000   0.01158    9.94913-127.87498   0.00085    14   15   16      1
    16  -0.06150   0.02850   8.03250   0.01245   13.94355-114.44395   0.00085    15   16   17      1
    17  -0.06550   0.01750   8.03500   0.01158    9.94913-105.25512   0.00085    16   17   18      1
    18  -0.06750   0.00600   8.03700   0.01221    9.43023 -94.76364   0.00085    17   18   19      1
    19  -0.06750  -0.00600   8.03900   0.01221    9.43023 -85.23636   0.00085    18   19   20      1
    20  -0.06550  -0.01750   8.04100   0.01158    9.94913 -74.74488   0.00085    19   20   21      1
    21  -0.06150  -0.02850   8.04300   0.01225    9.39845 -65.55605   0.00085    20   21   22      1
    22  -0.05550  -0.03850   8.04500   0.01158    9.94913 -52.12502   0.00085    21   22   23      1
    23  -0.04750  -0.04750   8.04700   0.01288    8.93014 -45.00000   0.00085    22   23   24      1
    24  -0.03850  -0.05550   8.04900   0.01158    9.94913 -37.87498   0.00085    23   24   25      1
    25  -0.02850  -0.06150   8.05100   0.01225    9.39845 -24.44395   0.00085    24   25   26      1
    26  -0.01750  -0.06550   8.05300   0.01158    9.94913 -15.25512   0.00085    25   26   27      1
    27  -0.00600  -0.06750   8.05550   0.01241   13.98967  -4.76364   0.00085    26   27   28      1
    28   0.00600  -0.06750   8.05800   0.01221    9.43023   4.76364   0.00085    27   28   29      1
    29   0.01750  -0.06550   8.06000   0.01158    9.94913  15.25512   0.00085    28   29   30      1
    30   0.02850  -0.06150   8.06200   0.01225    9.39845  24.44395   0.00085    29   30   31      1
    31   0.03850  -0.05550   8.06400   0.01158    9.94913  37.87498   0.00085    30   31   32      1
    32   0.04750  -0.04750   8.06600   0.01288    8.93014  45.00000   0.00085    31   32   33      1
    33   0.05550  -0.03850   8.06800   0.01158    9.94913  52.12502   0.00085    32   33   34      1
    34   0.06150  -0.02850   8.07000   0.01225    9.39845  65.55605   0.00085    33   34   35      1
    35   0.06550  -0.01750   8.07200   0.01158    9.94913  74.74488   0.00085    34   35   36      1
    36   0.06750  -0.00600   8.07400   0.01221    9.43023  85.23636   0.00085    35   36   37      1
    37   0.06750   0.00600   8.07600   0.01221    9.43023  94.76364   0.00085    36   37   38      1
    38   0.06550   0.01750   8.07850   0.01179   14.74139 105.25512   0.00085    37   38   39      1
    39   0.06150   0.02850   8.08100   0.01225    9.39845 114.44395   0.00085    38   39   40      1
    40   0.05550   0.03850   8.08300   0.01158    9.94913 127.87498   0.00085    39   40   41      1
    41   0.04750   0.04750   8.08500   0.01288    8.93014 135.00000   0.00085    40   41   42      1
    42   0.03850   0.05550   8.08700   0.01158    9.94913 142.12502   0.00085    41   42   43      1
    43   0.02850   0.06150   8.08900   0.01225    9.39845 155.55605   0.00085    42   43   44      1
    44   0.01750   0.06550   8.09100   0.01158    9.94913 164.74488   0.00085    43   44   45      1
    45   0.00600   0.06750   8.09300   0.01221    9.43023 175.23636   0.00085    44   45   46      1
    46  -0.00600   0.06750   8.09500   0.01221    9.43023-175.23636   0.00085    45   46   47      1
    47  -0.01750   0.06550   8.09700   0.01158    9.94913-164.74488   0.00085    46   47   48      1
    48  -0.02850   0.06150   8.09950   0.01245   13.94355-155.55605   0.00085    47   48   49      1
    49  -0.03850   0.05550   8.10200   0.01158    9.94913-142.12502   0.00085    48   49   50      1
    50  -0.04750   0.04750   8.10400   0.01288    8.93014-135.00000   0.00085    49   50   51      1
    51  -0.05550   0.03850   8.10600   0.01158    9.94913-127.87498   0.00085    50   51   52      1
    52  -0.06150   0.02850   8.10800   0.01225    9.39845-114.44395   0.00085    51   52   53      1
    53  -0.06550   0.01750   8.11000   0.01158    9.94913-105.25512   0.00085    52   53   54      1
    54  -0.06750   0.00600   8.11200   0.01221    9.43023 -94.76364   0.00085    53   54   55      1
    55  -0.06750  -0.00600   8.11400   0.01221    9.43023 -85.23636   0.00085    54   55   56      1
    56  -0.06550  -0.01750   8.11600   0.01158    9.94913 -74.74488   0.00085    55   56   57      1
    57  -0.06150  -0.02850   8.11800   0.01225    9.39845 -65.55605   0.00085    56   57   58      1
    58  -0.05550  -0.03850   8.12000   0.01158    9.94913 -52.12502   0.00085    57   58   59      1
    59  -0.04750  -0.04750   8.12250   0.01308   13.26268 -45.00000   0.00085    58   59   60      1
    60  -0.03850  -0.05550   8.12500   0.01158    9.94913 -37.87498   0.00085    59   60   61      1
    61  -0.02850  -0.06150   8.12700   0.01225    9.39845 -24.44395   0.00085    60   61   62      1
    62  -0.01750  -0.06550   8.12900   0.01158    9.94913 -15.25512   0.00085    61   62   63      1
    63  -0.00600  -0.06750   8.13100   0.01221    9.43023  -4.76364   0.00085    62   63   64      1
    64   0.00600  -0.06750   8.13300   0.01221    9.43023   4.76364   0.00085    63   64   65      1
    65   0.01750  -0.06550   8.13500   0.01158    9.94913  15.25512   0.00085    64   65   66      1
    66   0.02850  -0.06150   8.13700   0.01225    9.39845  24.44395   0.00085    65   66   67      1
    67   0.03850  -0.05550   8.13900   0.01158    9.94913  37.87498   0.00085    66   67   68      1
    68   0.04750  -0.04750   8.14100   0.01288    8.93014  45.00000   0.00085    67   68   69      1
    69   0.05550  -0.03850   8.14300   0.01158    9.94913  52.12502   0.00085    68   69   70      1
    70   0.06150  -0.02850   8.14550   0.01245   13.94355  65.55605   0.00085    69   70   71      1
    71   0.06550  -0.01750   8.14800   0.01158    9.94913  74.74488   0.00085    70   71   72      1
    72   0.06750  -0.00600   8.15000   0.01221    9.43023  85.23636   0.00085    71   72  181      1
    73   0.06350   0.00300   8.09000   0.00608    0.00000  99.46232   0.00100   108   73   74    999
    74   0.06200   0.00900   8.09000   0.00632    0.00000 108.43495   0.00100    73   74   75      4
    75   0.06000   0.01500   8.09000   0.00632    0.00000 108.43495   0.00100    74   75   76      4
    76   0.05700   0.02050   8.09000   0.00640    0.00000 128.65981   0.00100    75   76   77      4
    77   0.05300   0.02500   8.09000   0.00566    0.00000 135.00000   0.00100    76   77   78      4
    78   0.04850   0.02900   8.09000   0.00640    0.00000 141.34019   0.00100    77   78   79      4
    79   0.04300   0.03200   8.09000   0.00632    0.00000 161.56505   0.00100    78   79   80      4
    80   0.03700   0.03400   8.09000   0.00632    0.00000 161.56505   0.00100    79   80   81      4
    81   0.03100   0.03500   8.09000   0.00600    0.00000 180.00000   0.00100    80   81   82      4
    82   0.02500   0.03500   8.09000   0.00600    0.00000 180.00000   0.00100    81   82   83      4
    83   0.01900   0.03400   8.09000   0.00632    0.00000-161.56505   0.00100    82   83   84      4
    84   0.01350   0.03200   8.09000   0.00539    0.00000-158.19859   0.00100    83   84   85      4
    85   0.00850   0.02900   8.09000   0.00640    0.00000-141.34019   0.00100    84   85   86      4
    86   0.00350   0.02500   8.09000   0.00640    0.00000-141.34019   0.00100    85   86   87      4
    87  -0.00050   0.02050   8.09000   0.00583    0.00000-120.96376   0.00100    86   87   88      4
    88  -0.00350   0.01500   8.09000   0.00671    0.00000-116.56505   0.00100    87   88   89      4
    89  -0.00550   0.00900   8.09000   0.00608    0.00000 -99.46232   0.00100    88   89   90      4
    90  -0.00650   0.00300   8.09000   0.00608    0.00000 -99.46232   0.00100    89   90   91      4
    91  -0.00650  -0.00300   8.09000   0.00608    0.00000 -80.53768   0.00100    90   91   92      4
    92  -0.00550  -0.00900   8.09000   0.00608    0.00000 -80.53768   0.00100    91   92   93      4
    93  -0.00350  -0.01500   8.09000   0.00671    0.00000 -63.43495   0.00100    92   93   94      4
    94  -0.00050  -0.02050   8.09000   0.00583    0.00000 -59.03624   0.00100    93   94   95      4
    95   0.00350  -0.02500   8.09000   0.00640    0.00000 -38.65981   0.00100    94   95   96      4
    96   0.00850  -0.02900   8.09000   0.00640    0.00000 -38.65981   0.00100    95   96   97      4
    97   0.01350  -0.03200   8.09000   0.00539    0.00000 -21.80141   0.00100    96   97   98      4
    98   0.01900  -0.03400   8.09000   0.00632    0.00000 -18.43495   0.00100    97   98   99      4
    99   0.02500  -0.03500   8.09000   0.00600    0.00000   0.00000   0.00100    98   99  100      4
   100   0.03100  -0.03500   8.09000   0.00600    0.00000   0.00000   0.00100    99  100  101      4
   101   0.03700  -0.03400   8.09000   0.00632    0.00000  18.43495   0.00100   100  101  102      4
   102   0.04300  -0.03200   8.09000   0.00632    0.00000  18.43495   0.00100   101  102  103      4
   103   0.04850  -0.02900   8.09000   0.00640    0.00000  38.65981   0.00100   102  103  104      4
   104   0.05300  -0.02500   8.09000   0.00566    0.00000  45.00000   0.00100   103  104  105      4
   105   0.05700  -0.02050   8.09000   0.00640    0.00000  51.34019   0.00100   104  105  106      4
   106   0.06000  -0.01500   8.09000   0.00632    0.00000  71.56505   0.00100   105  106  107      4
   107   0.06200  -0.00900   8.09000   0.00632    0.00000  71.56505   0.00100   106  107  108      4
   108   0.06350  -0.00300   8.09000   0.00608    0.00000  80.53768   0.00100   107  108   73      4
   109   0.06750  -0.00600   8.28800   0.01221    9.43023 -94.76364   0.00085   183  109  110      2
   110   0.06550  -0.01750   8.29000   0.01158    9.94913-105.25512   0.00085   109  110  111      2
   111   0.06150  -0.02850   8.29200   0.01225    9.39845-114.44395   0.00085   110  111  112      2
   112   0.05550  -0.03850   8.29400   0.01158    9.94913-127.87498   0.00085   111  112  113      2
   113   0.04750  -0.04750   8.29600   0.01288    8.93014-135.00000   0.00085   112  113  114      2
   114   0.03850  -0.05550   8.29800   0.01158    9.94913-142.12502   0.00085   113  114  115      2
   115   0.02850  -0.06150   8.30050   0.01245   13.94355-155.55605   0.00085   114  115  116      2
   116   0.01750  -0.06550   8.30300   0.01158    9.94913-164.74488   0.00085   115  116  117      2
   117   0.00600  -0.06750   8.30500   0.01221    9.43023-175.23636   0.00085   116  117  118      2
   118  -0.00600  -0.06750   8.30700   0.01221    9.43023 175.23636   0.00085   117  118  119      2
   119  -0.01750  -0.06550   8.30900   0.01158    9.94913 164.74488   0.00085   118  119  120      2
   120  -0.02850  -0.06150   8.31100   0.01225    9.39845 155.55605   0.00085   119  120  121      2
   121  -0.03850  -0.05550   8.31300   0.01158    9.94913 142.12502   0.00085   120  121  122      2
   122  -0.04750  -0.04750   8.31500   0.01288    8.93014 135.00000   0.00085   121  122  123      2
   123  -0.05550  -0.03850   8.31700   0.01158    9.94913 127.87498   0.00085   122  123  124      2
   124  -0.06150  -0.02850   8.31900   0.01225    9.39845 114.44395   0.00085   123  124  125      2
   125  -0.06550  -0.01750   8.32100   0.01158    9.94913 105.25512   0.00085   124  125  126      2
   126  -0.06750  -0.00600   8.32350   0.01241   13.98967  94.76364   0.00085   125  126  127      2
   127  -0.06750   0.00600   8.32600   0.01221    9.43023  85.23636   0.00085   126  127  128      2
   128  -0.06550   0.01750   8.32800   0.01158    9.94913  74.74488   0.00085   127  128  129      2
   129  -0.06150   0.02850   8.33000   0.01225    9.39845  65.55605   0.00085   128  129  130      2
   130  -0.05550   0.03850   8.33200   0.01158    9.94913  52.12502   0.00085   129  130  131      2
   131  -0.04750   0.04750   8.33400   0.01288    8.93014  45.00000   0.00085   130  131  132      2
   132  -0.03850   0.05550   8.33600   0.01158    9.94913  37.87498   0.00085   131  132  133      2
   133  -0.02850   0.06150   8.33800   0.01225    9.39845  24.44395   0.00085   132  133  134      2
   134  -0.01750   0.06550   8.34000   0.01158    9.94913  15.25512   0.00085   133  134  135      2
   135  -0.00600   0.06750   8.34200   0.01221    9.43023   4.76364   0.00085   134  135  136      2
   136   0.00600   0.06750   8.34400   0.01221    9.43023  -4.76364   0.00085   135  136  137      2
   137   0.01750   0.06550   8.34650   0.01179   14.74139 -15.25512   0.00085   136  137  138      2
   138   0.02850   0.06150   8.34900   0.01225    9.39845 -24.44395   0.00085   137  138  139      2
   139   0.03850   0.05550   8.35100   0.01158    9.94913 -37.87498   0.00085   138  139  140      2
   140   0.04750   0.04750   8.35300   0.01288    8.93014 -45.00000   0.00085   139  140  141      2
   141   0.05550   0.03850   8.35500   0.01158    9.94913 -52.12502   0.00085   140  141  142      2
   142   0.06150   0.02850   8.35700   0.01225    9.39845 -65.55605   0.00085   141  142  143      2
   143   0.06550   0.01750   8.35900   0.01158    9.94913 -74.74488   0.00085   142  143  144      2
   144   0.06750   0.00600   8.36100   0.01221    9.43023 -85.23636   0.00085   143  144  145      2
   145   0.06750  -0.00600   8.36300   0.01221    9.43023 -94.76364   0.00085   144  145  146      2
   146   0.06550  -0.01750   8.36500   0.01158    9.94913-105.25512   0.00085   145  146  147      2
   147   0.06150  -0.02850   8.36750   0.01245   13.94355-114.44395   0.00085   146  147  148      2
   148   0.05550  -0.03850   8.37000   0.01158    9.94913-127.87498   0.00085   147  148  149      2
   149   0.04750  -0.04750   8.37200   0.01288    8.93014-135.00000   0.00085   148  149  150      2
   150   0.03850  -0.05550   8.37400   0.01158    9.94913-142.12502   0.00085   149  150  151      2
   151   0.02850  -0.06150   8.37600   0.01225    9.39845-155.55605   0.00085   150  151  152      2
   152   0.01750  -0.06550   8.37800   0.01158    9.94913-164.74488   0.00085   151  152  153      2
   153   0.00600  -0.06750   8.38000   0.01221    9.43023-175.23636   0.00085   152  153  154      2
   154  -0.00600  -0.06750   8.38200   0.01221    9.43023 175.23636   0.00085   153  154  155      2
   155  -0.01750  -0.06550   8.38400   0.01158    9.94913 164.74488   0.00085   154  155  156      2
   156  -0.02850  -0.06150   8.38600   0.01225    9.39845 155.55605   0.00085   155  156  157      2
   157  -0.03850  -0.05550   8.38800   0.01158    9.94913 142.12502   0.00085   156  157  158      2
   158  -0.04750  -0.04750   8.39050   0.01308   13.26268 135.00000   0.00085   157  158  159      2
   159  -0.05550  -0.03850   8.39300   0.01158    9.94913 127.87498   0.00085   158  159  160      2
   160  -0.06150  -0.02850   8.39500   0.01225    9.39845 114.44395   0.00085   159  160  161      2
   161  -0.06550  -0.01750   8.39700   0.01158    9.94913 105.25512   0.00085   160  161  162      2
   162  -0.06750  -0.00600   8.39900   0.01221    9.43023  94.76364   0.00085   161  162  163      2
   163  -0.06750   0.00600   8.40100   0.01221    9.43023  85.23636   0.00085   162  163  164      2
   164  -0.06550   0.01750   8.40300   0.01158    9.94913  74.74488   0.00085   163  164  165      2
   165  -0.06150   0.02850   8.40500   0.01225    9.39845  65.55605   0.00085   164  165  166      2
   166  -0.05550   0.03850   8.40700   0.01158    9.94913  52.12502   0.00085   165  166  167      2
   167  -0.04750   0.04750   8.40900   0.01288    8.93014  45.00000   0.00085   166  167  168      2
   168  -0.03850   0.05550   8.41100   0.01158    9.94913  37.87498   0.00085   167  168  169      2
   169  -0.02850   0.06150   8.41350   0.01245   13.94355  24.44395   0.00085   168  169  170      2
   170  -0.01750   0.06550   8.41600   0.01158    9.94913  15.25512   0.00085   169  170  171      2
   171  -0.00600   0.06750   8.41800   0.01221    9.43023   4.76364   0.00085   170  171  172      2
   172   0.00600   0.06750   8.42000   0.01221    9.43023  -4.76364   0.00085   171  172  173      2
   173   0.01750   0.06550   8.42200   0.01158    9.94913 -15.25512   0.00085   172  173  174      2
   174   0.02850   0.06150   8.42400   0.01225    9.39845 -24.44395   0.00085   173  174  175      2
   175   0.03850   0.05550   8.42600   0.01158    9.94913 -37.87498   0.00085   174  175  176      2
   176   0.04750   0.04750   8.42800   0.01288    8.93014 -45.00000   0.00085   175  176  177      2
   177   0.05550   0.03850   8.43000   0.01158    9.94913 -52.12502   0.00085   176  177  178      2
   178   0.06150   0.02850   8.43200   0.01225    9.39845 -65.55605   0.00085   177  178  179      2
   179   0.06550   0.01750   8.43450   0.01179   14.74139 -74.74488   0.00085   178  179  180      2
   180   0.06750   0.00600   8.43700   0.01221    9.43023 -85.23636   0.00085   179  180    0      2
   181   0.06800   0.00000   8.17367   0.04533   90.00000   0.00000   0.00085    72  181  182      3
   182   0.06800   0.00000   8.21900   0.04533   90.00000   0.00000   0.00085   181  182  183      3
   183   0.06800   0.00000   8.26433   0.04533   90.00000   0.00000   0.00085   182  183  109      3






 ***** DATA CARD NO.  1   GN   2     0     0     0  1.10000E+01  1.00000E-02  0.00000E+00  0.00000E+00  0.00000E+00  0.00000E+00
 ***** DATA CARD NO.  2   EK   0     0     0     0  0.00000E+00  0.00000E+00  0.00000E+00  0.00000E+00  0.00000E+00  0.00000E+00
 ***** DATA CARD NO.  3   LD   5     0     0     0  5.80000E+07  0.00000E+00  0.00000E+00  0.00000E+00  0.00000E+00  0.00000E+00
 ***** DATA CARD NO.  4   EX   0   999     1     0  1.00000E+00  0.00000E+00  0.00000E+00  0.00000E+00  0.00000E+00  0.00000E+00
 ***** DATA CARD NO.  5   FR   0     1     0     0  1.44200E+02  0.00000E+00  0.00000E+00  0.00000E+00  0.00000E+00  0.00000E+00
 ***** DATA CARD NO.  6   RP   0     1     1  1000  8.70000E+01  9.00000E+01  0.00000E+00  0.00000E+00  0.00000E+00  0.00000E+00




                                 - - - - - - FREQUENCY - - - - - -

                                    FREQUENCY= 1.4420E+02 MHZ
                                    WAVELENGTH= 2.0791E+00 METERS




                    APPROXIMATE INTEGRATION EMPLOYED FOR SEGMENTS MORE THAN   1.000 WAVELENGTHS APART

                    THE EXTENDED THIN WIRE KERNEL WILL BE USED



                               - - - STRUCTURE IMPEDANCE LOADING - - -


       LOCATION          RESISTANCE   INDUCTANCE  CAPACITANCE       IMPEDANCE (OHMS)     CONDUCTIVITY    TYPE
    ITAG FROM THRU          OHMS        HENRYS       FARADS        REAL      IMAGINARY    MHOS/METER

     ALL                                                                                 5.8000E+07     WIRE  



                                  - - - ANTENNA ENVIRONMENT - - -

                                        FINITE GROUND.  SOMMERFELD SOLUTION
                                        RELATIVE DIELECTRIC CONST.= 11.000
                                        CONDUCTIVITY= 1.000E-02 MHOS/METER
                                        COMPLEX DIELECTRIC CONSTANT= 1.10000E+01-1.24660E+00



                                - - - MATRIX TIMING - - -

                        FILL=    0.109 SEC.,  FACTOR=    0.016 SEC.



                                          - - - ANTENNA INPUT PARAMETERS - - -

   TAG   SEG.    VOLTAGE (VOLTS)         CURRENT (AMPS)         IMPEDANCE (OHMS)        ADMITTANCE (MHOS)      POWER
   NO.   NO.    REAL        IMAG.       REAL        IMAG.       REAL        IMAG.       REAL        IMAG.     (WATTS)
   999    73 1.00000E+00 0.00000E+00 1.97460E-05-6.24737E-03 5.05919E-01 1.60066E+02 1.97460E-05-6.24737E-03 9.87300E-06



                             - - - CURRENTS AND LOCATION - - -

                                 DISTANCES IN WAVELENGTHS


  SEG.  TAG    COORD. OF SEG. CENTER     SEG.            - - - CURRENT (AMPS) - - -
  NO.   NO.     X        Y        Z      LENGTH     REAL        IMAG.       MAG.        PHASE
     1    1   0.0325   0.0029   3.8484  0.00587  -1.2521E-06 -3.6406E-05  3.6428E-05  -91.970
     2    1   0.0315   0.0084   3.8493  0.00557  -3.0331E-06 -8.7485E-05  8.7537E-05  -91.986
     3    1   0.0296   0.0137   3.8503  0.00589  -4.6564E-06 -1.3317E-04  1.3325E-04  -92.003
     4    1   0.0267   0.0185   3.8513  0.00557  -6.2388E-06 -1.7690E-04  1.7701E-04  -92.020
     5    1   0.0228   0.0228   3.8522  0.00620  -7.8402E-06 -2.2040E-04  2.2054E-04  -92.037
     6    1   0.0185   0.0267   3.8534  0.00567  -9.4414E-06 -2.6320E-04  2.6336E-04  -92.054
     7    1   0.0137   0.0296   3.8546  0.00589  -1.0998E-05 -3.0416E-04  3.0436E-04  -92.071
     8    1   0.0084   0.0315   3.8556  0.00557  -1.2532E-05 -3.4404E-04  3.4426E-04  -92.086
     9    1   0.0029   0.0325   3.8566  0.00587  -1.4054E-05 -3.8319E-04  3.8345E-04  -92.100
    10    1  -0.0029   0.0325   3.8575  0.00587  -1.5601E-05 -4.2271E-04  4.2299E-04  -92.114
    11    1  -0.0084   0.0315   3.8585  0.00557  -1.7091E-05 -4.6056E-04  4.6088E-04  -92.125
    12    1  -0.0137   0.0296   3.8594  0.00589  -1.8564E-05 -4.9785E-04  4.9819E-04  -92.136
    13    1  -0.0185   0.0267   3.8604  0.00557  -2.0012E-05 -5.3446E-04  5.3484E-04  -92.144
    14    1  -0.0228   0.0228   3.8614  0.00620  -2.1466E-05 -5.7132E-04  5.7173E-04  -92.152
    15    1  -0.0267   0.0185   3.8623  0.00557  -2.2883E-05 -6.0740E-04  6.0783E-04  -92.158
    16    1  -0.0296   0.0137   3.8635  0.00599  -2.4240E-05 -6.4209E-04  6.4255E-04  -92.162
    17    1  -0.0315   0.0084   3.8647  0.00557  -2.5561E-05 -6.7615E-04  6.7663E-04  -92.165
    18    1  -0.0325   0.0029   3.8657  0.00587  -2.6824E-05 -7.0906E-04  7.0956E-04  -92.166
    19    1  -0.0325  -0.0029   3.8667  0.00587  -2.8070E-05 -7.4194E-04  7.4247E-04  -92.167
    20    1  -0.0315  -0.0084   3.8676  0.00557  -2.9233E-05 -7.7307E-04  7.7363E-04  -92.166
    21    1  -0.0296  -0.0137   3.8686  0.00589  -3.0347E-05 -8.0336E-04  8.0393E-04  -92.163
    22    1  -0.0267  -0.0185   3.8695  0.00557  -3.1406E-05 -8.3269E-04  8.3328E-04  -92.160
    23    1  -0.0228  -0.0228   3.8705  0.00620  -3.2437E-05 -8.6181E-04  8.6242E-04  -92.155
    24    1  -0.0185  -0.0267   3.8715  0.00557  -3.3409E-05 -8.8984E-04  8.9047E-04  -92.150
    25    1  -0.0137  -0.0296   3.8724  0.00589  -3.4301E-05 -9.1611E-04  9.1675E-04  -92.144
    26    1  -0.0084  -0.0315   3.8734  0.00557  -3.5138E-05 -9.4134E-04  9.4199E-04  -92.138
    27    1  -0.0029  -0.0325   3.8746  0.00597  -3.5927E-05 -9.6571E-04  9.6638E-04  -92.131
    28    1   0.0029  -0.0325   3.8758  0.00587  -3.6691E-05 -9.8993E-04  9.9061E-04  -92.123
    29    1   0.0084  -0.0315   3.8768  0.00557  -3.7378E-05 -1.0123E-03  1.0130E-03  -92.115
    30    1   0.0137  -0.0296   3.8777  0.00589  -3.8016E-05 -1.0339E-03  1.0346E-03  -92.106
    31    1   0.0185  -0.0267   3.8787  0.00557  -3.8606E-05 -1.0547E-03  1.0554E-03  -92.096
    32    1   0.0228  -0.0228   3.8796  0.00620  -3.9163E-05 -1.0755E-03  1.0763E-03  -92.085
    33    1   0.0267  -0.0185   3.8806  0.00557  -3.9670E-05 -1.0958E-03  1.0965E-03  -92.073
    34    1   0.0296  -0.0137   3.8816  0.00589  -4.0119E-05 -1.1148E-03  1.1155E-03  -92.061
    35    1   0.0315  -0.0084   3.8825  0.00557  -4.0523E-05 -1.1326E-03  1.1333E-03  -92.049
    36    1   0.0325  -0.0029   3.8835  0.00587  -4.0885E-05 -1.1468E-03  1.1475E-03  -92.042
    37    1   0.0325   0.0029   3.8845  0.00587  -4.1212E-05 -1.1509E-03  1.1516E-03  -92.051
    38    1   0.0315   0.0084   3.8857  0.00567  -4.1492E-05 -1.1363E-03  1.1371E-03  -92.091
    39    1   0.0296   0.0137   3.8869  0.00589  -4.1746E-05 -1.1084E-03  1.1092E-03  -92.157
    40    1   0.0267   0.0185   3.8878  0.00557  -4.1955E-05 -1.0771E-03  1.0779E-03  -92.231
    41    1   0.0228   0.0228   3.8888  0.00620  -4.2120E-05 -1.0443E-03  1.0451E-03  -92.310
    42    1   0.0185   0.0267   3.8897  0.00557  -4.2235E-05 -1.0124E-03  1.0132E-03  -92.389
    43    1   0.0137   0.0296   3.8907  0.00589  -4.2302E-05 -9.8177E-04  9.8268E-04  -92.467
    44    1   0.0084   0.0315   3.8917  0.00557  -4.2324E-05 -9.5075E-04  9.5169E-04  -92.549
    45    1   0.0029   0.0325   3.8926  0.00587  -4.2300E-05 -9.1904E-04  9.2001E-04  -92.635
    46    1  -0.0029   0.0325   3.8936  0.00587  -4.2227E-05 -8.8550E-04  8.8650E-04  -92.730
    47    1  -0.0084   0.0315   3.8946  0.00557  -4.2107E-05 -8.5176E-04  8.5280E-04  -92.830
    48    1  -0.0137   0.0296   3.8958  0.00599  -4.1936E-05 -8.1661E-04  8.1769E-04  -92.940
    49    1  -0.0185   0.0267   3.8970  0.00557  -4.1723E-05 -7.8057E-04  7.8168E-04  -93.060
    50    1  -0.0228   0.0228   3.8979  0.00620  -4.1449E-05 -7.4282E-04  7.4397E-04  -93.194
    51    1  -0.0267   0.0185   3.8989  0.00557  -4.1114E-05 -7.0398E-04  7.0518E-04  -93.342
    52    1  -0.0296   0.0137   3.8998  0.00589  -4.0730E-05 -6.6516E-04  6.6641E-04  -93.504
    53    1  -0.0315   0.0084   3.9008  0.00557  -4.0286E-05 -6.2545E-04  6.2674E-04  -93.685
    54    1  -0.0325   0.0029   3.9018  0.00587  -3.9783E-05 -5.8499E-04  5.8634E-04  -93.890
    55    1  -0.0325  -0.0029   3.9027  0.00587  -3.9201E-05 -5.4266E-04  5.4408E-04  -94.132
    56    1  -0.0315  -0.0084   3.9037  0.00557  -3.8571E-05 -5.0072E-04  5.0220E-04  -94.405
    57    1  -0.0296  -0.0137   3.9047  0.00589  -3.7879E-05 -4.5809E-04  4.5966E-04  -94.727
    58    1  -0.0267  -0.0185   3.9056  0.00557  -3.7125E-05 -4.1490E-04  4.1656E-04  -95.113
    59    1  -0.0228  -0.0228   3.9068  0.00629  -3.6285E-05 -3.6980E-04  3.7158E-04  -95.604
    60    1  -0.0185  -0.0267   3.9080  0.00557  -3.5392E-05 -3.2440E-04  3.2632E-04  -96.226
    61    1  -0.0137  -0.0296   3.9090  0.00589  -3.4474E-05 -2.8012E-04  2.8224E-04  -97.016
    62    1  -0.0084  -0.0315   3.9099  0.00557  -3.3505E-05 -2.3562E-04  2.3799E-04  -98.093
    63    1  -0.0029  -0.0325   3.9109  0.00587  -3.2491E-05 -1.9105E-04  1.9380E-04  -99.651
    64    1   0.0029  -0.0325   3.9119  0.00587  -3.1406E-05 -1.4525E-04  1.4860E-04 -102.201
    65    1   0.0084  -0.0315   3.9128  0.00557  -3.0310E-05 -1.0062E-04  1.0509E-04 -106.764
    66    1   0.0137  -0.0296   3.9138  0.00589  -2.9181E-05 -5.5980E-05  6.3129E-05 -117.532
    67    1   0.0185  -0.0267   3.9148  0.00557  -2.8024E-05 -1.1402E-05  3.0255E-05 -157.861
    68    1   0.0228  -0.0228   3.9157  0.00620  -2.6816E-05  3.4237E-05  4.3488E-05  128.070
    69    1   0.0267  -0.0185   3.9167  0.00557  -2.5587E-05  7.9959E-05  8.3954E-05  107.745
    70    1   0.0296  -0.0137   3.9179  0.00599  -2.4367E-05  1.2517E-04  1.2752E-04  101.016
    71    1   0.0315  -0.0084   3.9191  0.00557  -2.3150E-05  1.7062E-04  1.7218E-04   97.727
    72    1   0.0325  -0.0029   3.9200  0.00587  -2.1945E-05  2.1599E-04  2.1710E-04   95.802
    73  999   0.0305   0.0014   3.8912  0.00293   1.9746E-05 -6.2474E-03  6.2474E-03  -89.819
    74    4   0.0298   0.0043   3.8912  0.00304   1.9770E-05 -6.3168E-03  6.3168E-03  -89.821
    75    4   0.0289   0.0072   3.8912  0.00304   1.9798E-05 -6.3751E-03  6.3751E-03  -89.822
    76    4   0.0274   0.0099   3.8912  0.00308   1.9833E-05 -6.4215E-03  6.4216E-03  -89.823
    77    4   0.0255   0.0120   3.8912  0.00272   1.9867E-05 -6.4607E-03  6.4607E-03  -89.824
    78    4   0.0233   0.0139   3.8912  0.00308   1.9901E-05 -6.4961E-03  6.4961E-03  -89.824
    79    4   0.0207   0.0154   3.8912  0.00304   1.9934E-05 -6.5297E-03  6.5297E-03  -89.825
    80    4   0.0178   0.0164   3.8912  0.00304   1.9961E-05 -6.5592E-03  6.5592E-03  -89.826
    81    4   0.0149   0.0168   3.8912  0.00289   1.9983E-05 -6.5846E-03  6.5846E-03  -89.826
    82    4   0.0120   0.0168   3.8912  0.00289   1.9999E-05 -6.6062E-03  6.6063E-03  -89.827
    83    4   0.0091   0.0164   3.8912  0.00304   2.0013E-05 -6.6256E-03  6.6257E-03  -89.827
    84    4   0.0065   0.0154   3.8912  0.00259   2.0021E-05 -6.6415E-03  6.6415E-03  -89.827
    85    4   0.0041   0.0139   3.8912  0.00308   2.0027E-05 -6.6550E-03  6.6551E-03  -89.828
    86    4   0.0017   0.0120   3.8912  0.00308   2.0029E-05 -6.6672E-03  6.6672E-03  -89.828
    87    4  -0.0002   0.0099   3.8912  0.00280   2.0027E-05 -6.6764E-03  6.6764E-03  -89.828
    88    4  -0.0017   0.0072   3.8912  0.00323   2.0021E-05 -6.6835E-03  6.6835E-03  -89.828
    89    4  -0.0026   0.0043   3.8912  0.00293   2.0011E-05 -6.6884E-03  6.6884E-03  -89.829
    90    4  -0.0031   0.0014   3.8912  0.00293   1.9997E-05 -6.6909E-03  6.6909E-03  -89.829
    91    4  -0.0031  -0.0014   3.8912  0.00293   1.9979E-05 -6.6914E-03  6.6914E-03  -89.829
    92    4  -0.0026  -0.0043   3.8912  0.00293   1.9958E-05 -6.6898E-03  6.6899E-03  -89.829
    93    4  -0.0017  -0.0072   3.8912  0.00323   1.9932E-05 -6.6860E-03  6.6861E-03  -89.829
    94    4  -0.0002  -0.0099   3.8912  0.00280   1.9904E-05 -6.6801E-03  6.6801E-03  -89.829
    95    4   0.0017  -0.0120   3.8912  0.00308   1.9875E-05 -6.6722E-03  6.6723E-03  -89.829
    96    4   0.0041  -0.0139   3.8912  0.00308   1.9844E-05 -6.6617E-03  6.6617E-03  -89.829
    97    4   0.0065  -0.0154   3.8912  0.00259   1.9815E-05 -6.6498E-03  6.6498E-03  -89.829
    98    4   0.0091  -0.0164   3.8912  0.00304   1.9788E-05 -6.6359E-03  6.6360E-03  -89.829
    99    4   0.0120  -0.0168   3.8912  0.00289   1.9762E-05 -6.6190E-03  6.6190E-03  -89.829
   100    4   0.0149  -0.0168   3.8912  0.00289   1.9741E-05 -6.6000E-03  6.6001E-03  -89.829
   101    4   0.0178  -0.0164   3.8912  0.00304   1.9723E-05 -6.5780E-03  6.5780E-03  -89.828
   102    4   0.0207  -0.0154   3.8912  0.00304   1.9709E-05 -6.5525E-03  6.5525E-03  -89.828
   103    4   0.0233  -0.0139   3.8912  0.00308   1.9700E-05 -6.5237E-03  6.5238E-03  -89.827
   104    4   0.0255  -0.0120   3.8912  0.00272   1.9697E-05 -6.4933E-03  6.4933E-03  -89.826
   105    4   0.0274  -0.0099   3.8912  0.00308   1.9697E-05 -6.4594E-03  6.4594E-03  -89.825
   106    4   0.0289  -0.0072   3.8912  0.00304   1.9703E-05 -6.4193E-03  6.4194E-03  -89.824
   107    4   0.0298  -0.0043   3.8912  0.00304   1.9713E-05 -6.3735E-03  6.3735E-03  -89.823
   108    4   0.0305  -0.0014   3.8912  0.00293   1.9727E-05 -6.3160E-03  6.3160E-03  -89.821
   109    2   0.0325  -0.0029   3.9864  0.00587  -9.1101E-06  7.7427E-04  7.7432E-04   90.674
   110    2   0.0315  -0.0084   3.9874  0.00557  -8.2438E-06  8.1694E-04  8.1699E-04   90.578
   111    2   0.0296  -0.0137   3.9883  0.00589  -7.3492E-06  8.5905E-04  8.5908E-04   90.490
   112    2   0.0267  -0.0185   3.9893  0.00557  -6.4337E-06  9.0038E-04  9.0041E-04   90.409
   113    2   0.0228  -0.0228   3.9903  0.00620  -5.4808E-06  9.4194E-04  9.4195E-04   90.333
   114    2   0.0185  -0.0267   3.9912  0.00557  -4.5174E-06  9.8250E-04  9.8251E-04   90.263
   115    2   0.0137  -0.0296   3.9924  0.00599  -3.5642E-06  1.0214E-03  1.0214E-03   90.200
   116    2   0.0084  -0.0315   3.9936  0.00557  -2.6153E-06  1.0595E-03  1.0595E-03   90.141
   117    2   0.0029  -0.0325   3.9946  0.00587  -1.6828E-06  1.0961E-03  1.0961E-03   90.088
   118    2  -0.0029  -0.0325   3.9956  0.00587  -7.3754E-07  1.1325E-03  1.1325E-03   90.037
   119    2  -0.0084  -0.0315   3.9965  0.00557   1.6713E-07  1.1668E-03  1.1668E-03   89.992
   120    2  -0.0137  -0.0296   3.9975  0.00589   1.0522E-06  1.2000E-03  1.2000E-03   89.950
   121    2  -0.0185  -0.0267   3.9984  0.00557   1.9128E-06  1.2320E-03  1.2320E-03   89.911
   122    2  -0.0228  -0.0228   3.9994  0.00620   2.7645E-06  1.2635E-03  1.2635E-03   89.875
   123    2  -0.0267  -0.0185   4.0004  0.00557   3.5839E-06  1.2935E-03  1.2935E-03   89.841
   124    2  -0.0296  -0.0137   4.0013  0.00589   4.3496E-06  1.3215E-03  1.3215E-03   89.811
   125    2  -0.0315  -0.0084   4.0023  0.00557   5.0800E-06  1.3480E-03  1.3480E-03   89.784
   126    2  -0.0325  -0.0029   4.0035  0.00597   5.7784E-06  1.3732E-03  1.3732E-03   89.759
   127    2  -0.0325   0.0029   4.0047  0.00587   6.4548E-06  1.3978E-03  1.3978E-03   89.735
   128    2  -0.0315   0.0084   4.0057  0.00557   7.0715E-06  1.4200E-03  1.4200E-03   89.715
   129    2  -0.0296   0.0137   4.0066  0.00589   7.6537E-06  1.4406E-03  1.4407E-03   89.696
   130    2  -0.0267   0.0185   4.0076  0.00557   8.2016E-06  1.4597E-03  1.4597E-03   89.678
   131    2  -0.0228   0.0228   4.0085  0.00620   8.7302E-06  1.4775E-03  1.4775E-03   89.661
   132    2  -0.0185   0.0267   4.0095  0.00557   9.2268E-06  1.4935E-03  1.4935E-03   89.646
   133    2  -0.0137   0.0296   4.0105  0.00589   9.6812E-06  1.5073E-03  1.5073E-03   89.632
   134    2  -0.0084   0.0315   4.0114  0.00557   1.0109E-05  1.5192E-03  1.5193E-03   89.619
   135    2  -0.0029   0.0325   4.0124  0.00587   1.0512E-05  1.5293E-03  1.5293E-03   89.606
   136    2   0.0029   0.0325   4.0134  0.00587   1.0903E-05  1.5376E-03  1.5376E-03   89.594
   137    2   0.0084   0.0315   4.0146  0.00567   1.1266E-05  1.5436E-03  1.5436E-03   89.582
   138    2   0.0137   0.0296   4.0158  0.00589   1.1608E-05  1.5478E-03  1.5478E-03   89.570
   139    2   0.0185   0.0267   4.0167  0.00557   1.1930E-05  1.5497E-03  1.5497E-03   89.559
   140    2   0.0228   0.0228   4.0177  0.00620   1.2241E-05  1.5493E-03  1.5493E-03   89.547
   141    2   0.0267   0.0185   4.0186  0.00557   1.2534E-05  1.5463E-03  1.5464E-03   89.536
   142    2   0.0296   0.0137   4.0196  0.00589   1.2800E-05  1.5409E-03  1.5410E-03   89.524
   143    2   0.0315   0.0084   4.0206  0.00557   1.3048E-05  1.5330E-03  1.5331E-03   89.512
   144    2   0.0325   0.0029   4.0215  0.00587   1.3276E-05  1.5226E-03  1.5226E-03   89.500
   145    2   0.0325  -0.0029   4.0225  0.00587   1.3489E-05  1.5092E-03  1.5093E-03   89.488
   146    2   0.0315  -0.0084   4.0235  0.00557   1.3675E-05  1.4936E-03  1.4937E-03   89.475
   147    2   0.0296  -0.0137   4.0247  0.00599   1.3842E-05  1.4754E-03  1.4755E-03   89.462
   148    2   0.0267  -0.0185   4.0259  0.00557   1.3987E-05  1.4551E-03  1.4552E-03   89.449
   149    2   0.0228  -0.0228   4.0268  0.00620   1.4108E-05  1.4321E-03  1.4322E-03   89.436
   150    2   0.0185  -0.0267   4.0278  0.00557   1.4202E-05  1.4070E-03  1.4070E-03   89.422
   151    2   0.0137  -0.0296   4.0287  0.00589   1.4267E-05  1.3804E-03  1.3805E-03   89.408
   152    2   0.0084  -0.0315   4.0297  0.00557   1.4303E-05  1.3520E-03  1.3521E-03   89.394
   153    2   0.0029  -0.0325   4.0307  0.00587   1.4306E-05  1.3219E-03  1.3220E-03   89.380
   154    2  -0.0029  -0.0325   4.0316  0.00587   1.4273E-05  1.2893E-03  1.2894E-03   89.366
   155    2  -0.0084  -0.0315   4.0326  0.00557   1.4203E-05  1.2560E-03  1.2561E-03   89.352
   156    2  -0.0137  -0.0296   4.0336  0.00589   1.4092E-05  1.2211E-03  1.2212E-03   89.339
   157    2  -0.0185  -0.0267   4.0345  0.00557   1.3940E-05  1.1849E-03  1.1849E-03   89.326
   158    2  -0.0228  -0.0228   4.0357  0.00629   1.3735E-05  1.1460E-03  1.1461E-03   89.313
   159    2  -0.0267  -0.0185   4.0369  0.00557   1.3483E-05  1.1059E-03  1.1059E-03   89.301
   160    2  -0.0296  -0.0137   4.0379  0.00589   1.3192E-05  1.0658E-03  1.0659E-03   89.291
   161    2  -0.0315  -0.0084   4.0389  0.00557   1.2856E-05  1.0245E-03  1.0246E-03   89.281
   162    2  -0.0325  -0.0029   4.0398  0.00587   1.2476E-05  9.8224E-04  9.8232E-04   89.272
   163    2  -0.0325   0.0029   4.0408  0.00587   1.2039E-05  9.3773E-04  9.3780E-04   89.264
   164    2  -0.0315   0.0084   4.0417  0.00557   1.1572E-05  8.9332E-04  8.9340E-04   89.258
   165    2  -0.0296   0.0137   4.0427  0.00589   1.1064E-05  8.4789E-04  8.4796E-04   89.252
   166    2  -0.0267   0.0185   4.0437  0.00557   1.0518E-05  8.0152E-04  8.0159E-04   89.248
   167    2  -0.0228   0.0228   4.0446  0.00620   9.9249E-06  7.5306E-04  7.5313E-04   89.245
   168    2  -0.0185   0.0267   4.0456  0.00557   9.3004E-06  7.0371E-04  7.0377E-04   89.243
   169    2  -0.0137   0.0296   4.0468  0.00599   8.6586E-06  6.5436E-04  6.5442E-04   89.242
   170    2  -0.0084   0.0315   4.0480  0.00557   7.9924E-06  6.0429E-04  6.0434E-04   89.242
   171    2  -0.0029   0.0325   4.0490  0.00587   7.3138E-06  5.5396E-04  5.5401E-04   89.244
   172    2   0.0029   0.0325   4.0499  0.00587   6.6020E-06  5.0152E-04  5.0156E-04   89.246
   173    2   0.0084   0.0315   4.0509  0.00557   5.8966E-06  4.4967E-04  4.4970E-04   89.249
   174    2   0.0137   0.0296   4.0518  0.00589   5.1809E-06  3.9696E-04  3.9699E-04   89.252
   175    2   0.0185   0.0267   4.0528  0.00557   4.4583E-06  3.4343E-04  3.4346E-04   89.256
   176    2   0.0228   0.0228   4.0538  0.00620   3.7108E-06  2.8758E-04  2.8760E-04   89.261
   177    2   0.0267   0.0185   4.0547  0.00557   2.9570E-06  2.3056E-04  2.3057E-04   89.265
   178    2   0.0296   0.0137   4.0557  0.00589   2.2126E-06  1.7349E-04  1.7350E-04   89.269
   179    2   0.0315   0.0084   4.0569  0.00567   1.4421E-06  1.1363E-04  1.1364E-04   89.273
   180    2   0.0325   0.0029   4.0581  0.00587   5.9286E-07  4.6983E-05  4.6986E-05   89.277
   181    3   0.0327   0.0000   3.9314  0.02180  -1.9086E-05  3.2691E-04  3.2747E-04   93.341
   182    3   0.0327   0.0000   3.9532  0.02180  -1.4927E-05  4.9985E-04  5.0007E-04   91.710
   183    3   0.0327   0.0000   3.9750  0.02180  -1.1203E-05  6.6891E-04  6.6900E-04   90.959



                                        - - - POWER BUDGET - - -

                                           INPUT POWER   = 9.8730E-06 WATTS
                                           RADIATED POWER= 6.9956E-06 WATTS
                                           STRUCTURE LOSS= 2.8774E-06 WATTS
                                           NETWORK LOSS  = 0.0000E+00 WATTS
                                           EFFICIENCY    =  70.86 PERCENT



                                                - - - RADIATION PATTERNS - - -

  - - ANGLES - -           - POWER GAINS -       - - - POLARIZATION - - -    - - - E(THETA) - - -    - - - E(PHI) - - -
  THETA     PHI        VERT.   HOR.    TOTAL      AXIAL     TILT   SENSE     MAGNITUDE    PHASE      MAGNITUDE    PHASE 
 DEGREES  DEGREES       DB      DB      DB        RATIO     DEG.              VOLTS/M    DEGREES      VOLTS/M    DEGREES
   87.00    90.00      -1.26    4.15    5.25    0.52992   -85.16  LEFT      2.10406E-02   -90.37    3.92473E-02     6.15






 ***** DATA CARD NO.  7   EN   0     1     1  1000  8.70000E+01  9.00000E+01  0.00000E+00  0.00000E+00  0.00000E+00  0.00000E+00

 RUN TIME =     0.203
