1



                                 *********************************************

                                    NUMERICAL ELECTROMAGNETICS CODE (NEC-2D)

                                 *********************************************




                                     - - - - COMMENTS - - - -


                          No comments specified                                                      
                                                                                                     




                                 - - - STRUCTURE SPECIFICATION - - -

                                     COORDINATES MUST BE INPUT IN
                                     METERS OR BE SCALED TO METERS
                                     BEFORE STRUCTURE INPUT IS ENDED


  WIRE                                                                               NO. OF    FIRST  LAST     TAG
  NO.        X1         Y1         Z1          X2         Y2         Z2      RADIUS   SEG.     SEG.   SEG.     NO.
     1   -0.13600    0.00000    0.12000    -0.03100    0.00000    0.12000    0.00250      2        1     2       1
     2   -0.03100    0.00000    0.12000     0.02100    0.00000    0.12000    0.00250      1        3     3     999
     3    0.02100    0.00000    0.12000     0.13600    0.00000    0.12000    0.00250      2        4     5       1
     4   -0.13300   -0.33000    0.12600    -0.13300   -0.33000    0.96400    0.00250     17        6    22       3
     5    0.13300   -0.33000    0.12600     0.13300   -0.33000    0.96400    0.00250     17       23    39       3
     6   -0.13300   -0.33000    0.12600     0.13300   -0.33000    0.12600    0.00250      6       40    45       3
     7   -0.13300   -0.33000    0.96400     0.00000   -0.33000    0.96400    0.00250      3       46    48       3
     8    0.00000   -0.33000    0.96400     0.13300   -0.33000    0.96400    0.00250      3       49    51       3
     9   -0.13600    0.00000    0.00000    -0.13600    0.00000    0.12000    0.00250      3       52    54       2
    10    0.13600    0.00000    0.00000     0.13600    0.00000    0.12000    0.00250      3       55    57       2
    11   -0.13600    0.00000    0.00000     0.13600    0.00000    0.00000    0.00250      6       58    63       2
    12   -0.13600    0.00000    0.97000     0.00000    0.00000    0.97000    0.00250      3       64    66       2
    13   -0.13600    0.00000    0.12000    -0.13600    0.00000    0.97000    0.00250     17       67    83       2
    14    0.13600    0.00000    0.12000     0.13600    0.00000    0.97000    0.00250     17       84   100       2
    15    0.00000    0.00000    0.97000     0.13600    0.00000    0.97000    0.00250      3      101   103       2
    16    0.00000    0.00000    0.97000     0.00000   -0.33000    0.96400    0.00050      7      104   110       4
    17    1.00000   -0.40000    0.00000     1.00000   -0.40000    0.50000    0.00250      5      111   115       5
    18    1.00000   -0.30000    0.00000     1.00000   -0.30000    0.50000    0.00250      5      116   120       5
    19    1.00000   -0.20000    0.00000     1.00000   -0.20000    0.50000    0.00250      5      121   125       5
    20    1.00000   -0.10000    0.00000     1.00000   -0.10000    0.50000    0.00250      5      126   130       5
    21    1.00000    0.00000    0.00000     1.00000    0.00000    0.50000    0.00250      5      131   135       5
    22    1.00000    0.10000    0.00000     1.00000    0.10000    0.50000    0.00250      5      136   140       5
    23    1.00000    0.20000    0.00000     1.00000    0.20000    0.50000    0.00250      5      141   145       5
    24    1.00000    0.30000    0.00000     1.00000    0.30000    0.50000    0.00250      5      146   150       5
    25    1.00000    0.40000    0.00000     1.00000    0.40000    0.50000    0.00250      5      151   155       5
    26    1.00000   -0.50000    0.00000     1.00000    0.50000    0.00000    0.00250     10      156   165       5
    27    1.00000   -0.50000    0.10000     1.00000    0.50000    0.10000    0.00250     10      166   175       5
    28    1.00000   -0.50000    0.20000     1.00000    0.50000    0.20000    0.00250     10      176   185       5
    29    1.00000   -0.50000    0.30000     1.00000    0.50000    0.30000    0.00250     10      186   195       5
    30    1.00000   -0.50000    0.40000     1.00000    0.50000    0.40000    0.00250     10      196   205       5
    31    1.00000   -0.50000    0.50000     1.00000    0.50000    0.50000    0.00250     10      206   215       5
      THE STRUCTURE HAS BEEN MOVED, MOVE DATA CARD IS -
        0    0   0.00000   0.00000   0.00000   0.00000   0.00000   8.00000   0.00000

   GROUND PLANE SPECIFIED.

   TOTAL SEGMENTS USED=  215     NO. SEG. IN A SYMMETRIC CELL=  215     SYMMETRY FLAG=  0


         - MULTIPLE WIRE JUNCTIONS -
 JUNCTION    SEGMENTS  (- FOR END 1, + FOR END 2)
     1        -1   54  -67
     2         5   57  -84
     3        48  -49  110
     4        66 -101 -104
     5      -111  156 -157
     6       111 -112  166 -167
     7       112 -113  176 -177
     8       113 -114  186 -187
     9       114 -115  196 -197
    10       115  206 -207
    11      -116  157 -158
    12       116 -117  167 -168
    13       117 -118  177 -178
    14       118 -119  187 -188
    15       119 -120  197 -198
    16       120  207 -208
    17      -121  158 -159
    18       121 -122  168 -169
    19       122 -123  178 -179
    20       123 -124  188 -189
    21       124 -125  198 -199
    22       125  208 -209
    23      -126  159 -160
    24       126 -127  169 -170
    25       127 -128  179 -180
    26       128 -129  189 -190
    27       129 -130  199 -200
    28       130  209 -210
    29      -131  160 -161
    30       131 -132  170 -171
    31       132 -133  180 -181
    32       133 -134  190 -191
    33       134 -135  200 -201
    34       135  210 -211
    35      -136  161 -162
    36       136 -137  171 -172
    37       137 -138  181 -182
    38       138 -139  191 -192
    39       139 -140  201 -202
    40       140  211 -212
    41      -141  162 -163
    42       141 -142  172 -173
    43       142 -143  182 -183
    44       143 -144  192 -193
    45       144 -145  202 -203
    46       145  212 -213
    47      -146  163 -164
    48       146 -147  173 -174
    49       147 -148  183 -184
    50       148 -149  193 -194
    51       149 -150  203 -204
    52       150  213 -214
    53      -151  164 -165
    54       151 -152  174 -175
    55       152 -153  184 -185
    56       153 -154  194 -195
    57       154 -155  204 -205
    58       155  214 -215




                                 - - - - SEGMENTATION DATA - - - -

                                        COORDINATES IN METERS

                         I+ AND I- INDICATE THE SEGMENTS BEFORE AND AFTER I


  SEG.   COORDINATES OF SEG. CENTER     SEG.     ORIENTATION ANGLES    WIRE    CONNECTION DATA   TAG
  NO.       X         Y         Z       LENGTH     ALPHA     BETA      RADIUS    I-   I    I+    NO.
     1  -0.10975   0.00000   8.12000   0.05250    0.00000   0.00000   0.00250    54    1    2      1
     2  -0.05725   0.00000   8.12000   0.05250    0.00000   0.00000   0.00250     1    2    3      1
     3  -0.00500   0.00000   8.12000   0.05200    0.00000   0.00000   0.00250     2    3    4    999
     4   0.04975   0.00000   8.12000   0.05750    0.00000   0.00000   0.00250     3    4    5      1
     5   0.10725   0.00000   8.12000   0.05750    0.00000   0.00000   0.00250     4    5  -57      1
     6  -0.13300  -0.33000   8.15065   0.04929   90.00000   0.00000   0.00250   -40    6    7      3
     7  -0.13300  -0.33000   8.19994   0.04929   90.00000   0.00000   0.00250     6    7    8      3
     8  -0.13300  -0.33000   8.24924   0.04929   90.00000   0.00000   0.00250     7    8    9      3
     9  -0.13300  -0.33000   8.29853   0.04929   90.00000   0.00000   0.00250     8    9   10      3
    10  -0.13300  -0.33000   8.34782   0.04929   90.00000   0.00000   0.00250     9   10   11      3
    11  -0.13300  -0.33000   8.39712   0.04929   90.00000   0.00000   0.00250    10   11   12      3
    12  -0.13300  -0.33000   8.44641   0.04929   90.00000   0.00000   0.00250    11   12   13      3
    13  -0.13300  -0.33000   8.49571   0.04929   90.00000   0.00000   0.00250    12   13   14      3
    14  -0.13300  -0.33000   8.54500   0.04929   90.00000   0.00000   0.00250    13   14   15      3
    15  -0.13300  -0.33000   8.59429   0.04929   90.00000   0.00000   0.00250    14   15   16      3
    16  -0.13300  -0.33000   8.64359   0.04929   90.00000   0.00000   0.00250    15   16   17      3
    17  -0.13300  -0.33000   8.69288   0.04929   90.00000   0.00000   0.00250    16   17   18      3
    18  -0.13300  -0.33000   8.74218   0.04929   90.00000   0.00000   0.00250    17   18   19      3
    19  -0.13300  -0.33000   8.79147   0.04929   90.00000   0.00000   0.00250    18   19   20      3
    20  -0.13300  -0.33000   8.84076   0.04929   90.00000   0.00000   0.00250    19   20   21      3
    21  -0.13300  -0.33000   8.89006   0.04929   90.00000   0.00000   0.00250    20   21   22      3
    22  -0.13300  -0.33000   8.93935   0.04929   90.00000   0.00000   0.00250    21   22   46      3
    23   0.13300  -0.33000   8.15065   0.04929   90.00000   0.00000   0.00250    45   23   24      3
    24   0.13300  -0.33000   8.19994   0.04929   90.00000   0.00000   0.00250    23   24   25      3
    25   0.13300  -0.33000   8.24924   0.04929   90.00000   0.00000   0.00250    24   25   26      3
    26   0.13300  -0.33000   8.29853   0.04929   90.00000   0.00000   0.00250    25   26   27      3
    27   0.13300  -0.33000   8.34782   0.04929   90.00000   0.00000   0.00250    26   27   28      3
    28   0.13300  -0.33000   8.39712   0.04929   90.00000   0.00000   0.00250    27   28   29      3
    29   0.13300  -0.33000   8.44641   0.04929   90.00000   0.00000   0.00250    28   29   30      3
    30   0.13300  -0.33000   8.49571   0.04929   90.00000   0.00000   0.00250    29   30   31      3
    31   0.13300  -0.33000   8.54500   0.04929   90.00000   0.00000   0.00250    30   31   32      3
    32   0.13300  -0.33000   8.59429   0.04929   90.00000   0.00000   0.00250    31   32   33      3
    33   0.13300  -0.33000   8.64359   0.04929   90.00000   0.00000   0.00250    32   33   34      3
    34   0.13300  -0.33000   8.69288   0.04929   90.00000   0.00000   0.00250    33   34   35      3
    35   0.13300  -0.33000   8.74218   0.04929   90.00000   0.00000   0.00250    34   35   36      3
    36   0.13300  -0.33000   8.79147   0.04929   90.00000   0.00000   0.00250    35   36   37      3
    37   0.13300  -0.33000   8.84076   0.04929   90.00000   0.00000   0.00250    36   37   38      3
    38   0.13300  -0.33000   8.89006   0.04929   90.00000   0.00000   0.00250    37   38   39      3
    39   0.13300  -0.33000   8.93935   0.04929   90.00000   0.00000   0.00250    38   39  -51      3
    40  -0.11083  -0.33000   8.12600   0.04433    0.00000   0.00000   0.00250    -6   40   41      3
    41  -0.06650  -0.33000   8.12600   0.04433    0.00000   0.00000   0.00250    40   41   42      3
    42  -0.02217  -0.33000   8.12600   0.04433    0.00000   0.00000   0.00250    41   42   43      3
    43   0.02217  -0.33000   8.12600   0.04433    0.00000   0.00000   0.00250    42   43   44      3
    44   0.06650  -0.33000   8.12600   0.04433    0.00000   0.00000   0.00250    43   44   45      3
    45   0.11083  -0.33000   8.12600   0.04433    0.00000   0.00000   0.00250    44   45   23      3
    46  -0.11083  -0.33000   8.96400   0.04433    0.00000   0.00000   0.00250    22   46   47      3
    47  -0.06650  -0.33000   8.96400   0.04433    0.00000   0.00000   0.00250    46   47   48      3
    48  -0.02217  -0.33000   8.96400   0.04433    0.00000   0.00000   0.00250    47   48   49      3
    49   0.02217  -0.33000   8.96400   0.04433    0.00000   0.00000   0.00250   110   49   50      3
    50   0.06650  -0.33000   8.96400   0.04433    0.00000   0.00000   0.00250    49   50   51      3
    51   0.11083  -0.33000   8.96400   0.04433    0.00000   0.00000   0.00250    50   51  -39      3
    52  -0.13600   0.00000   8.02000   0.04000   90.00000   0.00000   0.00250   -58   52   53      2
    53  -0.13600   0.00000   8.06000   0.04000   90.00000   0.00000   0.00250    52   53   54      2
    54  -0.13600   0.00000   8.10000   0.04000   90.00000   0.00000   0.00250    53   54   67      2
    55   0.13600   0.00000   8.02000   0.04000   90.00000   0.00000   0.00250    63   55   56      2
    56   0.13600   0.00000   8.06000   0.04000   90.00000   0.00000   0.00250    55   56   57      2
    57   0.13600   0.00000   8.10000   0.04000   90.00000   0.00000   0.00250    56   57   84      2
    58  -0.11333   0.00000   8.00000   0.04533    0.00000   0.00000   0.00250   -52   58   59      2
    59  -0.06800   0.00000   8.00000   0.04533    0.00000   0.00000   0.00250    58   59   60      2
    60  -0.02267   0.00000   8.00000   0.04533    0.00000   0.00000   0.00250    59   60   61      2
    61   0.02267   0.00000   8.00000   0.04533    0.00000   0.00000   0.00250    60   61   62      2
    62   0.06800   0.00000   8.00000   0.04533    0.00000   0.00000   0.00250    61   62   63      2
    63   0.11333   0.00000   8.00000   0.04533    0.00000   0.00000   0.00250    62   63   55      2
    64  -0.11333   0.00000   8.97000   0.04533    0.00000   0.00000   0.00250    83   64   65      2
    65  -0.06800   0.00000   8.97000   0.04533    0.00000   0.00000   0.00250    64   65   66      2
    66  -0.02267   0.00000   8.97000   0.04533    0.00000   0.00000   0.00250    65   66  101      2
    67  -0.13600   0.00000   8.14500   0.05000   90.00000   0.00000   0.00250    -1   67   68      2
    68  -0.13600   0.00000   8.19500   0.05000   90.00000   0.00000   0.00250    67   68   69      2
    69  -0.13600   0.00000   8.24500   0.05000   90.00000   0.00000   0.00250    68   69   70      2
    70  -0.13600   0.00000   8.29500   0.05000   90.00000   0.00000   0.00250    69   70   71      2
    71  -0.13600   0.00000   8.34500   0.05000   90.00000   0.00000   0.00250    70   71   72      2
    72  -0.13600   0.00000   8.39500   0.05000   90.00000   0.00000   0.00250    71   72   73      2
    73  -0.13600   0.00000   8.44500   0.05000   90.00000   0.00000   0.00250    72   73   74      2
    74  -0.13600   0.00000   8.49500   0.05000   90.00000   0.00000   0.00250    73   74   75      2
    75  -0.13600   0.00000   8.54500   0.05000   90.00000   0.00000   0.00250    74   75   76      2
    76  -0.13600   0.00000   8.59500   0.05000   90.00000   0.00000   0.00250    75   76   77      2
    77  -0.13600   0.00000   8.64500   0.05000   90.00000   0.00000   0.00250    76   77   78      2
    78  -0.13600   0.00000   8.69500   0.05000   90.00000   0.00000   0.00250    77   78   79      2
    79  -0.13600   0.00000   8.74500   0.05000   90.00000   0.00000   0.00250    78   79   80      2
    80  -0.13600   0.00000   8.79500   0.05000   90.00000   0.00000   0.00250    79   80   81      2
    81  -0.13600   0.00000   8.84500   0.05000   90.00000   0.00000   0.00250    80   81   82      2
    82  -0.13600   0.00000   8.89500   0.05000   90.00000   0.00000   0.00250    81   82   83      2
    83  -0.13600   0.00000   8.94500   0.05000   90.00000   0.00000   0.00250    82   83   64      2
    84   0.13600   0.00000   8.14500   0.05000   90.00000   0.00000   0.00250     5   84   85      2
    85   0.13600   0.00000   8.19500   0.05000   90.00000   0.00000   0.00250    84   85   86      2
    86   0.13600   0.00000   8.24500   0.05000   90.00000   0.00000   0.00250    85   86   87      2
    87   0.13600   0.00000   8.29500   0.05000   90.00000   0.00000   0.00250    86   87   88      2
    88   0.13600   0.00000   8.34500   0.05000   90.00000   0.00000   0.00250    87   88   89      2
    89   0.13600   0.00000   8.39500   0.05000   90.00000   0.00000   0.00250    88   89   90      2
    90   0.13600   0.00000   8.44500   0.05000   90.00000   0.00000   0.00250    89   90   91      2
    91   0.13600   0.00000   8.49500   0.05000   90.00000   0.00000   0.00250    90   91   92      2
    92   0.13600   0.00000   8.54500   0.05000   90.00000   0.00000   0.00250    91   92   93      2
    93   0.13600   0.00000   8.59500   0.05000   90.00000   0.00000   0.00250    92   93   94      2
    94   0.13600   0.00000   8.64500   0.05000   90.00000   0.00000   0.00250    93   94   95      2
    95   0.13600   0.00000   8.69500   0.05000   90.00000   0.00000   0.00250    94   95   96      2
    96   0.13600   0.00000   8.74500   0.05000   90.00000   0.00000   0.00250    95   96   97      2
    97   0.13600   0.00000   8.79500   0.05000   90.00000   0.00000   0.00250    96   97   98      2
    98   0.13600   0.00000   8.84500   0.05000   90.00000   0.00000   0.00250    97   98   99      2
    99   0.13600   0.00000   8.89500   0.05000   90.00000   0.00000   0.00250    98   99  100      2
   100   0.13600   0.00000   8.94500   0.05000   90.00000   0.00000   0.00250    99  100 -103      2
   101   0.02267   0.00000   8.97000   0.04533    0.00000   0.00000   0.00250  -104  101  102      2
   102   0.06800   0.00000   8.97000   0.04533    0.00000   0.00000   0.00250   101  102  103      2
   103   0.11333   0.00000   8.97000   0.04533    0.00000   0.00000   0.00250   102  103 -100      2
   104   0.00000  -0.02357   8.96957   0.04715   -1.04163 -90.00000   0.00050    66  104  105      4
   105   0.00000  -0.07071   8.96871   0.04715   -1.04163 -90.00000   0.00050   104  105  106      4
   106   0.00000  -0.11786   8.96786   0.04715   -1.04163 -90.00000   0.00050   105  106  107      4
   107   0.00000  -0.16500   8.96700   0.04715   -1.04163 -90.00000   0.00050   106  107  108      4
   108   0.00000  -0.21214   8.96614   0.04715   -1.04163 -90.00000   0.00050   107  108  109      4
   109   0.00000  -0.25929   8.96529   0.04715   -1.04163 -90.00000   0.00050   108  109  110      4
   110   0.00000  -0.30643   8.96443   0.04715   -1.04163 -90.00000   0.00050   109  110  -48      4
   111   1.00000  -0.40000   8.05000   0.10000   90.00000  90.00000   0.00250   156  111  112      5
   112   1.00000  -0.40000   8.15000   0.10000   90.00000   0.00000   0.00250   166  112  113      5
   113   1.00000  -0.40000   8.25000   0.10000   90.00000   0.00000   0.00250   176  113  114      5
   114   1.00000  -0.40000   8.35000   0.10000   90.00000   0.00000   0.00250   186  114  115      5
   115   1.00000  -0.40000   8.45000   0.10000   90.00000 -90.00000   0.00250   196  115 -206      5
   116   1.00000  -0.30000   8.05000   0.10000   90.00000   0.00000   0.00250   157  116  117      5
   117   1.00000  -0.30000   8.15000   0.10000   90.00000   0.00000   0.00250   167  117  118      5
   118   1.00000  -0.30000   8.25000   0.10000   90.00000   0.00000   0.00250   177  118  119      5
   119   1.00000  -0.30000   8.35000   0.10000   90.00000   0.00000   0.00250   187  119  120      5
   120   1.00000  -0.30000   8.45000   0.10000   90.00000   0.00000   0.00250   197  120 -207      5
   121   1.00000  -0.20000   8.05000   0.10000   90.00000   0.00000   0.00250   158  121  122      5
   122   1.00000  -0.20000   8.15000   0.10000   90.00000   0.00000   0.00250   168  122  123      5
   123   1.00000  -0.20000   8.25000   0.10000   90.00000   0.00000   0.00250   178  123  124      5
   124   1.00000  -0.20000   8.35000   0.10000   90.00000   0.00000   0.00250   188  124  125      5
   125   1.00000  -0.20000   8.45000   0.10000   90.00000   0.00000   0.00250   198  125 -208      5
   126   1.00000  -0.10000   8.05000   0.10000   90.00000 -90.00000   0.00250   159  126  127      5
   127   1.00000  -0.10000   8.15000   0.10000   90.00000   0.00000   0.00250   169  127  128      5
   128   1.00000  -0.10000   8.25000   0.10000   90.00000   0.00000   0.00250   179  128  129      5
   129   1.00000  -0.10000   8.35000   0.10000   90.00000   0.00000   0.00250   189  129  130      5
   130   1.00000  -0.10000   8.45000   0.10000   90.00000  90.00000   0.00250   199  130 -209      5
   131   1.00000   0.00000   8.05000   0.10000   90.00000 -90.00000   0.00250   160  131  132      5
   132   1.00000   0.00000   8.15000   0.10000   90.00000   0.00000   0.00250   170  132  133      5
   133   1.00000   0.00000   8.25000   0.10000   90.00000   0.00000   0.00250   180  133  134      5
   134   1.00000   0.00000   8.35000   0.10000   90.00000   0.00000   0.00250   190  134  135      5
   135   1.00000   0.00000   8.45000   0.10000   90.00000  90.00000   0.00250   200  135 -210      5
   136   1.00000   0.10000   8.05000   0.10000   90.00000   0.00000   0.00250   161  136  137      5
   137   1.00000   0.10000   8.15000   0.10000   90.00000   0.00000   0.00250   171  137  138      5
   138   1.00000   0.10000   8.25000   0.10000   90.00000   0.00000   0.00250   181  138  139      5
   139   1.00000   0.10000   8.35000   0.10000   90.00000   0.00000   0.00250   191  139  140      5
   140   1.00000   0.10000   8.45000   0.10000   90.00000   0.00000   0.00250   201  140 -211      5
   141   1.00000   0.20000   8.05000   0.10000   90.00000   0.00000   0.00250   162  141  142      5
   142   1.00000   0.20000   8.15000   0.10000   90.00000   0.00000   0.00250   172  142  143      5
   143   1.00000   0.20000   8.25000   0.10000   90.00000   0.00000   0.00250   182  143  144      5
   144   1.00000   0.20000   8.35000   0.10000   90.00000   0.00000   0.00250   192  144  145      5
   145   1.00000   0.20000   8.45000   0.10000   90.00000   0.00000   0.00250   202  145 -212      5
   146   1.00000   0.30000   8.05000   0.10000   90.00000   0.00000   0.00250   163  146  147      5
   147   1.00000   0.30000   8.15000   0.10000   90.00000   0.00000   0.00250   173  147  148      5
   148   1.00000   0.30000   8.25000   0.10000   90.00000   0.00000   0.00250   183  148  149      5
   149   1.00000   0.30000   8.35000   0.10000   90.00000   0.00000   0.00250   193  149  150      5
   150   1.00000   0.30000   8.45000   0.10000   90.00000   0.00000   0.00250   203  150 -213      5
   151   1.00000   0.40000   8.05000   0.10000   90.00000 -90.00000   0.00250   164  151  152      5
   152   1.00000   0.40000   8.15000   0.10000   90.00000   0.00000   0.00250   174  152  153      5
   153   1.00000   0.40000   8.25000   0.10000   90.00000   0.00000   0.00250   184  153  154      5
   154   1.00000   0.40000   8.35000   0.10000   90.00000   0.00000   0.00250   194  154  155      5
   155   1.00000   0.40000   8.45000   0.10000   90.00000  90.00000   0.00250   204  155 -214      5
   156   1.00000  -0.45000   8.00000   0.10000    0.00000  90.00000   0.00250     0  156  157      5
   157   1.00000  -0.35000   8.00000   0.10000    0.00000  90.00000   0.00250  -111  157  158      5
   158   1.00000  -0.25000   8.00000   0.10000    0.00000  90.00000   0.00250  -116  158  159      5
   159   1.00000  -0.15000   8.00000   0.10000    0.00000  90.00000   0.00250  -121  159  160      5
   160   1.00000  -0.05000   8.00000   0.10000    0.00000  90.00000   0.00250  -126  160  161      5
   161   1.00000   0.05000   8.00000   0.10000    0.00000  90.00000   0.00250  -131  161  162      5
   162   1.00000   0.15000   8.00000   0.10000    0.00000  90.00000   0.00250  -136  162  163      5
   163   1.00000   0.25000   8.00000   0.10000    0.00000  90.00000   0.00250  -141  163  164      5
   164   1.00000   0.35000   8.00000   0.10000    0.00000  90.00000   0.00250  -146  164  165      5
   165   1.00000   0.45000   8.00000   0.10000    0.00000  90.00000   0.00250  -151  165    0      5
   166   1.00000  -0.45000   8.10000   0.10000    0.00000  90.00000   0.00250     0  166  167      5
   167   1.00000  -0.35000   8.10000   0.10000    0.00000  90.00000   0.00250   111  167  168      5
   168   1.00000  -0.25000   8.10000   0.10000    0.00000  90.00000   0.00250   116  168  169      5
   169   1.00000  -0.15000   8.10000   0.10000    0.00000  90.00000   0.00250   121  169  170      5
   170   1.00000  -0.05000   8.10000   0.10000    0.00000  90.00000   0.00250   126  170  171      5
   171   1.00000   0.05000   8.10000   0.10000    0.00000  90.00000   0.00250   131  171  172      5
   172   1.00000   0.15000   8.10000   0.10000    0.00000  90.00000   0.00250   136  172  173      5
   173   1.00000   0.25000   8.10000   0.10000    0.00000  90.00000   0.00250   141  173  174      5
   174   1.00000   0.35000   8.10000   0.10000    0.00000  90.00000   0.00250   146  174  175      5
   175   1.00000   0.45000   8.10000   0.10000    0.00000  90.00000   0.00250   151  175    0      5
   176   1.00000  -0.45000   8.20000   0.10000    0.00000  90.00000   0.00250     0  176  177      5
   177   1.00000  -0.35000   8.20000   0.10000    0.00000  90.00000   0.00250   112  177  178      5
   178   1.00000  -0.25000   8.20000   0.10000    0.00000  90.00000   0.00250   117  178  179      5
   179   1.00000  -0.15000   8.20000   0.10000    0.00000  90.00000   0.00250   122  179  180      5
   180   1.00000  -0.05000   8.20000   0.10000    0.00000  90.00000   0.00250   127  180  181      5
   181   1.00000   0.05000   8.20000   0.10000    0.00000  90.00000   0.00250   132  181  182      5
   182   1.00000   0.15000   8.20000   0.10000    0.00000  90.00000   0.00250   137  182  183      5
   183   1.00000   0.25000   8.20000   0.10000    0.00000  90.00000   0.00250   142  183  184      5
   184   1.00000   0.35000   8.20000   0.10000    0.00000  90.00000   0.00250   147  184  185      5
   185   1.00000   0.45000   8.20000   0.10000    0.00000  90.00000   0.00250   152  185    0      5
   186   1.00000  -0.45000   8.30000   0.10000    0.00000  90.00000   0.00250     0  186  187      5
   187   1.00000  -0.35000   8.30000   0.10000    0.00000  90.00000   0.00250   113  187  188      5
   188   1.00000  -0.25000   8.30000   0.10000    0.00000  90.00000   0.00250   118  188  189      5
   189   1.00000  -0.15000   8.30000   0.10000    0.00000  90.00000   0.00250   123  189  190      5
   190   1.00000  -0.05000   8.30000   0.10000    0.00000  90.00000   0.00250   128  190  191      5
   191   1.00000   0.05000   8.30000   0.10000    0.00000  90.00000   0.00250   133  191  192      5
   192   1.00000   0.15000   8.30000   0.10000    0.00000  90.00000   0.00250   138  192  193      5
   193   1.00000   0.25000   8.30000   0.10000    0.00000  90.00000   0.00250   143  193  194      5
   194   1.00000   0.35000   8.30000   0.10000    0.00000  90.00000   0.00250   148  194  195      5
   195   1.00000   0.45000   8.30000   0.10000    0.00000  90.00000   0.00250   153  195    0      5
   196   1.00000  -0.45000   8.40000   0.10000    0.00000  90.00000   0.00250     0  196  197      5
   197   1.00000  -0.35000   8.40000   0.10000    0.00000  90.00000   0.00250   114  197  198      5
   198   1.00000  -0.25000   8.40000   0.10000    0.00000  90.00000   0.00250   119  198  199      5
   199   1.00000  -0.15000   8.40000   0.10000    0.00000  90.00000   0.00250   124  199  200      5
   200   1.00000  -0.05000   8.40000   0.10000    0.00000  90.00000   0.00250   129  200  201      5
   201   1.00000   0.05000   8.40000   0.10000    0.00000  90.00000   0.00250   134  201  202      5
   202   1.00000   0.15000   8.40000   0.10000    0.00000  90.00000   0.00250   139  202  203      5
   203   1.00000   0.25000   8.40000   0.10000    0.00000  90.00000   0.00250   144  203  204      5
   204   1.00000   0.35000   8.40000   0.10000    0.00000  90.00000   0.00250   149  204  205      5
   205   1.00000   0.45000   8.40000   0.10000    0.00000  90.00000   0.00250   154  205    0      5
   206   1.00000  -0.45000   8.50000   0.10000    0.00000  90.00000   0.00250     0  206  207      5
   207   1.00000  -0.35000   8.50000   0.10000    0.00000  90.00000   0.00250   115  207  208      5
   208   1.00000  -0.25000   8.50000   0.10000    0.00000  90.00000   0.00250   120  208  209      5
   209   1.00000  -0.15000   8.50000   0.10000    0.00000  90.00000   0.00250   125  209  210      5
   210   1.00000  -0.05000   8.50000   0.10000    0.00000  90.00000   0.00250   130  210  211      5
   211   1.00000   0.05000   8.50000   0.10000    0.00000  90.00000   0.00250   135  211  212      5
   212   1.00000   0.15000   8.50000   0.10000    0.00000  90.00000   0.00250   140  212  213      5
   213   1.00000   0.25000   8.50000   0.10000    0.00000  90.00000   0.00250   145  213  214      5
   214   1.00000   0.35000   8.50000   0.10000    0.00000  90.00000   0.00250   150  214  215      5
   215   1.00000   0.45000   8.50000   0.10000    0.00000  90.00000   0.00250   155  215    0      5






 ***** DATA CARD NO.  1   GN   2     0     0     0  1.10000E+01  1.00000E-02  0.00000E+00  0.00000E+00  0.00000E+00  0.00000E+00
 ***** DATA CARD NO.  2   EK   0     0     0     0  0.00000E+00  0.00000E+00  0.00000E+00  0.00000E+00  0.00000E+00  0.00000E+00
 ***** DATA CARD NO.  3   LD   5     0     0     0  5.80000E+07  0.00000E+00  0.00000E+00  0.00000E+00  0.00000E+00  0.00000E+00
 ***** DATA CARD NO.  4   LD   1     5     0     0  1.72414E-09  1.00000E-12  0.00000E+00  0.00000E+00  0.00000E+00  0.00000E+00
 ***** DATA CARD NO.  5   EX   0   999     1     0  1.00000E+00  0.00000E+00  0.00000E+00  0.00000E+00  0.00000E+00  0.00000E+00
 ***** DATA CARD NO.  6   FR   0     1     0     0  1.44200E+02  0.00000E+00  0.00000E+00  0.00000E+00  0.00000E+00  0.00000E+00
 ***** DATA CARD NO.  7   RP   0     1     1  1000  8.50000E+01  9.00000E+01  0.00000E+00  0.00000E+00  0.00000E+00  0.00000E+00




                                 - - - - - - FREQUENCY - - - - - -

                                    FREQUENCY= 1.4420E+02 MHZ
                                    WAVELENGTH= 2.0791E+00 METERS




                    APPROXIMATE INTEGRATION EMPLOYED FOR SEGMENTS MORE THAN   1.000 WAVELENGTHS APART

                    THE EXTENDED THIN WIRE KERNEL WILL BE USED



                               - - - STRUCTURE IMPEDANCE LOADING - - -


       LOCATION          RESISTANCE   INDUCTANCE  CAPACITANCE       IMPEDANCE (OHMS)     CONDUCTIVITY    TYPE
    ITAG FROM THRU          OHMS        HENRYS       FARADS        REAL      IMAGINARY    MHOS/METER

     ALL                                                                                 5.8000E+07     WIRE  

       5                1.7241E-09   1.0000E-12                                                       PARALLEL

          NOTE, SOME OF THE ABOVE SEGMENTS HAVE BEEN LOADED TWICE - IMPEDANCES ADDED



                                  - - - ANTENNA ENVIRONMENT - - -

                                        FINITE GROUND.  SOMMERFELD SOLUTION
                                        RELATIVE DIELECTRIC CONST.= 11.000
                                        CONDUCTIVITY= 1.000E-02 MHOS/METER
                                        COMPLEX DIELECTRIC CONSTANT= 1.10000E+01-1.24660E+00



                                - - - MATRIX TIMING - - -

                        FILL=    0.141 SEC.,  FACTOR=    0.016 SEC.



                                          - - - ANTENNA INPUT PARAMETERS - - -

   TAG   SEG.    VOLTAGE (VOLTS)         CURRENT (AMPS)         IMPEDANCE (OHMS)        ADMITTANCE (MHOS)      POWER
   NO.   NO.    REAL        IMAG.       REAL        IMAG.       REAL        IMAG.       REAL        IMAG.     (WATTS)
   999     3 1.00000E+00 0.00000E+00 1.62261E-02-1.06155E-02 4.31574E+01 2.82345E+01 1.62261E-02-1.06155E-02 8.11306E-03



                             - - - CURRENTS AND LOCATION - - -

                                 DISTANCES IN WAVELENGTHS


  SEG.  TAG    COORD. OF SEG. CENTER     SEG.            - - - CURRENT (AMPS) - - -
  NO.   NO.     X        Y        Z      LENGTH     REAL        IMAG.       MAG.        PHASE
     1    1  -0.0528   0.0000   3.9056  0.02525   1.5575E-02 -1.0749E-02  1.8924E-02  -34.610
     2    1  -0.0275   0.0000   3.9056  0.02525   1.6038E-02 -1.0798E-02  1.9334E-02  -33.951
     3  999  -0.0024   0.0000   3.9056  0.02501   1.6226E-02 -1.0615E-02  1.9390E-02  -33.194
     4    1   0.0239   0.0000   3.9056  0.02766   1.6092E-02 -1.0855E-02  1.9410E-02  -34.002
     5    1   0.0516   0.0000   3.9056  0.02766   1.5622E-02 -1.0824E-02  1.9005E-02  -34.718
     6    3  -0.0640  -0.1587   3.9204  0.02371   1.4975E-02 -2.5644E-02  2.9696E-02  -59.718
     7    3  -0.0640  -0.1587   3.9441  0.02371   1.3896E-02 -2.3832E-02  2.7587E-02  -59.755
     8    3  -0.0640  -0.1587   3.9678  0.02371   1.2520E-02 -2.1514E-02  2.4892E-02  -59.803
     9    3  -0.0640  -0.1587   3.9915  0.02371   1.0874E-02 -1.8734E-02  2.1661E-02  -59.867
    10    3  -0.0640  -0.1587   4.0152  0.02371   8.9922E-03 -1.5550E-02  1.7962E-02  -59.960
    11    3  -0.0640  -0.1587   4.0389  0.02371   6.9143E-03 -1.2028E-02  1.3874E-02  -60.107
    12    3  -0.0640  -0.1587   4.0626  0.02371   4.6855E-03 -8.2451E-03  9.4835E-03  -60.392
    13    3  -0.0640  -0.1587   4.0863  0.02371   2.3543E-03 -4.2833E-03  4.8877E-03  -61.204
    14    3  -0.0640  -0.1587   4.1100  0.02371  -2.8054E-05 -2.2898E-04  2.3070E-04  -96.985
    15    3  -0.0640  -0.1587   4.1337  0.02371  -2.4092E-03  3.8290E-03  4.5239E-03  122.179
    16    3  -0.0640  -0.1587   4.1575  0.02371  -4.7368E-03  7.8017E-03  9.1271E-03  121.264
    17    3  -0.0640  -0.1587   4.1812  0.02371  -6.9596E-03  1.1602E-02  1.3530E-02  120.957
    18    3  -0.0640  -0.1587   4.2049  0.02371  -9.0287E-03  1.5148E-02  1.7635E-02  120.796
    19    3  -0.0640  -0.1587   4.2286  0.02371  -1.0899E-02  1.8363E-02  2.1354E-02  120.691
    20    3  -0.0640  -0.1587   4.2523  0.02371  -1.2531E-02  2.1178E-02  2.4607E-02  120.613
    21    3  -0.0640  -0.1587   4.2760  0.02371  -1.3889E-02  2.3535E-02  2.7328E-02  120.547
    22    3  -0.0640  -0.1587   4.2997  0.02371  -1.4947E-02  2.5390E-02  2.9463E-02  120.486
    23    3   0.0640  -0.1587   3.9204  0.02371  -1.5032E-02  2.5530E-02  2.9627E-02  120.489
    24    3   0.0640  -0.1587   3.9441  0.02371  -1.3969E-02  2.3687E-02  2.7499E-02  120.530
    25    3   0.0640  -0.1587   3.9678  0.02371  -1.2608E-02  2.1341E-02  2.4787E-02  120.573
    26    3   0.0640  -0.1587   3.9915  0.02371  -1.0974E-02  1.8538E-02  2.1542E-02  120.624
    27    3   0.0640  -0.1587   4.0152  0.02371  -9.1014E-03  1.5334E-02  1.7831E-02  120.692
    28    3   0.0640  -0.1587   4.0389  0.02371  -7.0305E-03  1.1796E-02  1.3733E-02  120.794
    29    3   0.0640  -0.1587   4.0626  0.02371  -4.8060E-03  8.0026E-03  9.3349E-03  120.987
    30    3   0.0640  -0.1587   4.0863  0.02371  -2.4765E-03  4.0343E-03  4.7338E-03  121.545
    31    3   0.0640  -0.1587   4.1100  0.02371  -9.3110E-05 -2.1904E-05  9.5652E-05 -166.762
    32    3   0.0640  -0.1587   4.1337  0.02371   2.2917E-03 -4.0772E-03  4.6771E-03  -60.660
    33    3   0.0640  -0.1587   4.1575  0.02371   4.6255E-03 -8.0428E-03  9.2781E-03  -60.096
    34    3   0.0640  -0.1587   4.1812  0.02371   6.8568E-03 -1.1832E-02  1.3675E-02  -59.907
    35    3   0.0640  -0.1587   4.2049  0.02371   8.9367E-03 -1.5363E-02  1.7773E-02  -59.813
    36    3   0.0640  -0.1587   4.2286  0.02371   1.0820E-02 -1.8558E-02  2.1482E-02  -59.758
    37    3   0.0640  -0.1587   4.2523  0.02371   1.2465E-02 -2.1351E-02  2.4724E-02  -59.723
    38    3   0.0640  -0.1587   4.2760  0.02371   1.3839E-02 -2.3684E-02  2.7431E-02  -59.702
    39    3   0.0640  -0.1587   4.2997  0.02371   1.4913E-02 -2.5511E-02  2.9550E-02  -59.691
    40    3  -0.0533  -0.1587   3.9085  0.02132  -1.5716E-02  2.6883E-02  3.1140E-02  120.310
    41    3  -0.0320  -0.1587   3.9085  0.02132  -1.6193E-02  2.7666E-02  3.2056E-02  120.340
    42    3  -0.0107  -0.1587   3.9085  0.02132  -1.6439E-02  2.8055E-02  3.2516E-02  120.369
    43    3   0.0107  -0.1587   3.9085  0.02132  -1.6447E-02  2.8038E-02  3.2506E-02  120.397
    44    3   0.0320  -0.1587   3.9085  0.02132  -1.6217E-02  2.7616E-02  3.2025E-02  120.423
    45    3   0.0533  -0.1587   3.9085  0.02132  -1.5756E-02  2.6801E-02  3.1089E-02  120.452
    46    3  -0.0533  -0.1587   4.3116  0.02132  -1.5666E-02  2.6670E-02  3.0930E-02  120.430
    47    3  -0.0320  -0.1587   4.3116  0.02132  -1.6123E-02  2.7489E-02  3.1868E-02  120.392
    48    3  -0.0107  -0.1587   4.3116  0.02132  -1.6352E-02  2.7911E-02  3.2348E-02  120.365
    49    3   0.0107  -0.1587   4.3116  0.02132  -1.6363E-02  2.7954E-02  3.2391E-02  120.342
    50    3   0.0320  -0.1587   4.3116  0.02132  -1.6119E-02  2.7558E-02  3.1926E-02  120.324
    51    3   0.0533  -0.1587   4.3116  0.02132  -1.5647E-02  2.6764E-02  3.1003E-02  120.312
    52    2  -0.0654   0.0000   3.8575  0.01924  -6.6242E-03  1.6710E-03  6.8317E-03  165.842
    53    2  -0.0654   0.0000   3.8768  0.01924  -6.1588E-03  1.4432E-03  6.3257E-03  166.812
    54    2  -0.0654   0.0000   3.8960  0.01924  -5.6452E-03  1.2027E-03  5.7719E-03  167.973
    55    2   0.0654   0.0000   3.8575  0.01924   6.6298E-03 -1.6513E-03  6.8323E-03  -13.986
    56    2   0.0654   0.0000   3.8768  0.01924   6.1652E-03 -1.4193E-03  6.3265E-03  -12.964
    57    2   0.0654   0.0000   3.8960  0.01924   5.6516E-03 -1.1741E-03  5.7723E-03  -11.736
    58    2  -0.0545   0.0000   3.8479  0.02180   7.0298E-03 -1.8826E-03  7.2775E-03  -14.992
    59    2  -0.0327   0.0000   3.8479  0.02180   7.3232E-03 -2.0374E-03  7.6013E-03  -15.547
    60    2  -0.0109   0.0000   3.8479  0.02180   7.4701E-03 -2.1142E-03  7.7635E-03  -15.803
    61    2   0.0109   0.0000   3.8479  0.02180   7.4709E-03 -2.1105E-03  7.7633E-03  -15.775
    62    2   0.0327   0.0000   3.8479  0.02180   7.3256E-03 -2.0269E-03  7.6008E-03  -15.466
    63    2   0.0545   0.0000   3.8479  0.02180   7.0338E-03 -1.8667E-03  7.2773E-03  -14.863
    64    2  -0.0545   0.0000   4.3145  0.02180   2.1015E-02 -1.1626E-02  2.4016E-02  -28.952
    65    2  -0.0327   0.0000   4.3145  0.02180   2.1706E-02 -1.2061E-02  2.4832E-02  -29.058
    66    2  -0.0109   0.0000   4.3145  0.02180   2.2057E-02 -1.2283E-02  2.5247E-02  -29.112
    67    2  -0.0654   0.0000   3.9176  0.02405  -2.0350E-02  1.1563E-02  2.3406E-02  150.394
    68    2  -0.0654   0.0000   3.9417  0.02405  -1.9155E-02  1.0975E-02  2.2077E-02  150.188
    69    2  -0.0654   0.0000   3.9657  0.02405  -1.7481E-02  1.0122E-02  2.0200E-02  149.929
    70    2  -0.0654   0.0000   3.9898  0.02405  -1.5399E-02  9.0318E-03  1.7853E-02  149.608
    71    2  -0.0654   0.0000   4.0138  0.02405  -1.2962E-02  7.7316E-03  1.5093E-02  149.186
    72    2  -0.0654   0.0000   4.0379  0.02405  -1.0228E-02  6.2514E-03  1.1987E-02  148.567
    73    2  -0.0654   0.0000   4.0619  0.02405  -7.2592E-03  4.6257E-03  8.6077E-03  147.494
    74    2  -0.0654   0.0000   4.0860  0.02405  -4.1237E-03  2.8918E-03  5.0366E-03  144.959
    75    2  -0.0654   0.0000   4.1100  0.02405  -8.9323E-04  1.0898E-03  1.4091E-03  129.339
    76    2  -0.0654   0.0000   4.1341  0.02405   2.3589E-03 -7.3894E-04  2.4719E-03  -17.393
    77    2  -0.0654   0.0000   4.1581  0.02405   5.5590E-03 -2.5525E-03  6.1170E-03  -24.663
    78    2  -0.0654   0.0000   4.1822  0.02405   8.6347E-03 -4.3095E-03  9.6503E-03  -26.523
    79    2  -0.0654   0.0000   4.2062  0.02405   1.1517E-02 -5.9698E-03  1.2972E-02  -27.400
    80    2  -0.0654   0.0000   4.2303  0.02405   1.4141E-02 -7.4958E-03  1.6005E-02  -27.927
    81    2  -0.0654   0.0000   4.2543  0.02405   1.6450E-02 -8.8535E-03  1.8681E-02  -28.289
    82    2  -0.0654   0.0000   4.2784  0.02405   1.8395E-02 -1.0013E-02  2.0943E-02  -28.562
    83    2  -0.0654   0.0000   4.3024  0.02405   1.9936E-02 -1.0951E-02  2.2746E-02  -28.781
    84    2   0.0654   0.0000   3.9176  0.02405   2.0378E-02 -1.1596E-02  2.3447E-02  -29.641
    85    2   0.0654   0.0000   3.9417  0.02405   1.9183E-02 -1.1002E-02  2.2114E-02  -29.835
    86    2   0.0654   0.0000   3.9657  0.02405   1.7507E-02 -1.0141E-02  2.0233E-02  -30.082
    87    2   0.0654   0.0000   3.9898  0.02405   1.5424E-02 -9.0452E-03  1.7881E-02  -30.389
    88    2   0.0654   0.0000   4.0138  0.02405   1.2985E-02 -7.7394E-03  1.5116E-02  -30.797
    89    2   0.0654   0.0000   4.0379  0.02405   1.0247E-02 -6.2541E-03  1.2005E-02  -31.397
    90    2   0.0654   0.0000   4.0619  0.02405   7.2745E-03 -4.6239E-03  8.6196E-03  -32.441
    91    2   0.0654   0.0000   4.0860  0.02405   4.1347E-03 -2.8862E-03  5.0424E-03  -34.917
    92    2   0.0654   0.0000   4.1100  0.02405   8.9940E-04 -1.0812E-03  1.4063E-03  -50.243
    93    2   0.0654   0.0000   4.1341  0.02405  -2.3579E-03  7.4988E-04  2.4743E-03  162.358
    94    2   0.0654   0.0000   4.1581  0.02405  -5.5634E-03  2.5649E-03  6.1262E-03  155.248
    95    2   0.0654   0.0000   4.1822  0.02405  -8.6444E-03  4.3225E-03  9.6649E-03  153.433
    96    2   0.0654   0.0000   4.2062  0.02405  -1.1532E-02  5.9826E-03  1.2991E-02  152.580
    97    2   0.0654   0.0000   4.2303  0.02405  -1.4161E-02  7.5077E-03  1.6028E-02  152.069
    98    2   0.0654   0.0000   4.2543  0.02405  -1.6475E-02  8.8637E-03  1.8708E-02  151.719
    99    2   0.0654   0.0000   4.2784  0.02405  -1.8423E-02  1.0021E-02  2.0973E-02  151.456
   100    2   0.0654   0.0000   4.3024  0.02405  -1.9968E-02  1.0957E-02  2.2777E-02  151.245
   101    2   0.0109   0.0000   4.3145  0.02180   2.2094E-02 -1.2280E-02  2.5277E-02  -29.065
   102    2   0.0327   0.0000   4.3145  0.02180   2.1742E-02 -1.2061E-02  2.4863E-02  -29.018
   103    2   0.0545   0.0000   4.3145  0.02180   2.1049E-02 -1.1629E-02  2.4048E-02  -28.919
   104    4   0.0000  -0.0113   4.3143  0.02268  -3.7371E-05 -5.3952E-06  3.7758E-05 -171.785
   105    4   0.0000  -0.0340   4.3138  0.02268  -3.6560E-05 -4.4362E-06  3.6828E-05 -173.082
   106    4   0.0000  -0.0567   4.3134  0.02268  -3.4699E-05 -1.2264E-06  3.4721E-05 -177.976
   107    4   0.0000  -0.0794   4.3130  0.02268  -3.1850E-05  4.0483E-06  3.2107E-05  172.756
   108    4   0.0000  -0.1020   4.3126  0.02268  -2.8106E-05  1.1117E-05  3.0225E-05  158.420
   109    4   0.0000  -0.1247   4.3122  0.02268  -2.3601E-05  1.9613E-05  3.0687E-05  140.272
   110    4   0.0000  -0.1474   4.3118  0.02268  -1.8675E-05  2.8800E-05  3.4324E-05  122.961
   111    5   0.4810  -0.1924   3.8719  0.04810  -8.3955E-05 -7.8837E-06  8.4324E-05 -174.635
   112    5   0.4810  -0.1924   3.9200  0.04810  -1.1972E-04 -4.2471E-05  1.2703E-04 -160.468
   113    5   0.4810  -0.1924   3.9681  0.04810  -1.2882E-04 -6.9204E-05  1.4624E-04 -151.755
   114    5   0.4810  -0.1924   4.0162  0.04810  -1.1079E-04 -8.2555E-05  1.3817E-04 -143.310
   115    5   0.4810  -0.1924   4.0643  0.04810  -5.9256E-05 -7.5312E-05  9.5829E-05 -128.196
   116    5   0.4810  -0.1443   3.8719  0.04810  -6.0912E-05 -1.0027E-05  6.1732E-05 -170.652
   117    5   0.4810  -0.1443   3.9200  0.04810  -9.0328E-05 -2.8629E-05  9.4756E-05 -162.414
   118    5   0.4810  -0.1443   3.9681  0.04810  -9.6796E-05 -3.8049E-05  1.0401E-04 -158.541
   119    5   0.4810  -0.1443   4.0162  0.04810  -8.2770E-05 -3.9310E-05  9.1630E-05 -154.596
   120    5   0.4810  -0.1443   4.0643  0.04810  -4.5290E-05 -3.2441E-05  5.5710E-05 -144.386
   121    5   0.4810  -0.0962   3.8719  0.04810  -5.7578E-05 -5.5494E-06  5.7845E-05 -174.495
   122    5   0.4810  -0.0962   3.9200  0.04810  -8.5542E-05 -1.5630E-05  8.6958E-05 -169.645
   123    5   0.4810  -0.0962   3.9681  0.04810  -9.1341E-05 -1.9173E-05  9.3331E-05 -168.145
   124    5   0.4810  -0.0962   4.0162  0.04810  -7.8376E-05 -1.8281E-05  8.0480E-05 -166.871
   125    5   0.4810  -0.0962   4.0643  0.04810  -4.4511E-05 -1.5068E-05  4.6993E-05 -161.298
   126    5   0.4810  -0.0481   3.8719  0.04810  -5.7712E-05  1.2596E-06  5.7725E-05  178.750
   127    5   0.4810  -0.0481   3.9200  0.04810  -8.6354E-05 -1.5977E-06  8.6369E-05 -178.940
   128    5   0.4810  -0.0481   3.9681  0.04810  -9.1978E-05 -2.5516E-06  9.2013E-05 -178.411
   129    5   0.4810  -0.0481   4.0162  0.04810  -7.9152E-05 -2.4630E-06  7.9190E-05 -178.218
   130    5   0.4810  -0.0481   4.0643  0.04810  -4.6668E-05 -2.8909E-06  4.6758E-05 -176.455
   131    5   0.4810   0.0000   3.8719  0.04810  -5.7494E-05  8.4237E-06  5.8108E-05  171.665
   132    5   0.4810   0.0000   3.9200  0.04810  -8.7491E-05  1.2319E-05  8.8354E-05  171.985
   133    5   0.4810   0.0000   3.9681  0.04810  -9.3210E-05  1.2907E-05  9.4100E-05  172.116
   134    5   0.4810   0.0000   4.0162  0.04810  -8.0413E-05  1.1381E-05  8.1214E-05  171.944
   135    5   0.4810   0.0000   4.0643  0.04810  -4.9014E-05  7.6415E-06  4.9606E-05  171.139
   136    5   0.4810   0.0481   3.8719  0.04810  -5.5428E-05  1.4422E-05  5.7274E-05  165.415
   137    5   0.4810   0.0481   3.9200  0.04810  -8.6863E-05  2.4979E-05  9.0384E-05  163.957
   138    5   0.4810   0.0481   3.9681  0.04810  -9.2984E-05  2.7100E-05  9.6852E-05  163.751
   139    5   0.4810   0.0481   4.0162  0.04810  -8.0555E-05  2.4154E-05  8.4099E-05  163.309
   140    5   0.4810   0.0481   4.0643  0.04810  -5.0738E-05  1.7661E-05  5.3724E-05  160.808
   141    5   0.4810   0.0962   3.8719  0.04810  -5.1231E-05  1.8142E-05  5.4348E-05  160.500
   142    5   0.4810   0.0962   3.9200  0.04810  -8.4440E-05  3.5827E-05  9.1726E-05  157.009
   143    5   0.4810   0.0962   3.9681  0.04810  -9.1595E-05  4.0546E-05  1.0017E-04  156.122
   144    5   0.4810   0.0962   4.0162  0.04810  -8.0104E-05  3.7290E-05  8.8358E-05  155.037
   145    5   0.4810   0.0962   4.0643  0.04810  -5.2330E-05  2.8646E-05  5.9658E-05  151.304
   146    5   0.4810   0.1443   3.8719  0.04810  -4.6536E-05  1.9351E-05  5.0399E-05  157.422
   147    5   0.4810   0.1443   3.9200  0.04810  -8.2594E-05  4.5183E-05  9.4145E-05  151.319
   148    5   0.4810   0.1443   3.9681  0.04810  -9.2488E-05  5.6022E-05  1.0813E-04  148.796
   149    5   0.4810   0.1443   4.0162  0.04810  -8.2743E-05  5.5568E-05  9.9671E-05  146.116
   150    5   0.4810   0.1443   4.0643  0.04810  -5.5720E-05  4.4392E-05  7.1241E-05  141.456
   151    5   0.4810   0.1924   3.8719  0.04810  -4.9612E-05  2.0694E-05  5.3755E-05  157.358
   152    5   0.4810   0.1924   3.9200  0.04810  -9.1868E-05  5.6273E-05  1.0773E-04  148.511
   153    5   0.4810   0.1924   3.9681  0.04810  -1.1119E-04  8.7018E-05  1.4120E-04  141.954
   154    5   0.4810   0.1924   4.0162  0.04810  -1.0567E-04  1.0071E-04  1.4598E-04  136.378
   155    5   0.4810   0.1924   4.0643  0.04810  -6.8881E-05  8.1900E-05  1.0701E-04  130.065
   156    5   0.4810  -0.2164   3.8479  0.04810   1.0198E-05 -8.8723E-05  8.9307E-05  -83.443
   157    5   0.4810  -0.1683   3.8479  0.04810   1.2779E-04 -2.3940E-04  2.7137E-04  -61.907
   158    5   0.4810  -0.1202   3.8479  0.04810   2.2464E-04 -3.5015E-04  4.1601E-04  -57.318
   159    5   0.4810  -0.0721   3.8479  0.04810   3.1172E-04 -4.3874E-04  5.3820E-04  -54.607
   160    5   0.4810  -0.0240   3.8479  0.04810   3.8234E-04 -5.0361E-04  6.3231E-04  -52.795
   161    5   0.4810   0.0240   3.8479  0.04810   4.2596E-04 -5.3840E-04  6.8653E-04  -51.650
   162    5   0.4810   0.0721   3.8479  0.04810   4.3159E-04 -5.3406E-04  6.8665E-04  -51.057
   163    5   0.4810   0.1202   3.8479  0.04810   3.8985E-04 -4.7996E-04  6.1834E-04  -50.914
   164    5   0.4810   0.1683   3.8479  0.04810   2.9416E-04 -3.6355E-04  4.6765E-04  -51.023
   165    5   0.4810   0.2164   3.8479  0.04810   1.2931E-04 -1.5149E-04  1.9917E-04  -49.516
   166    5   0.4810  -0.2164   3.8960  0.04810   1.7942E-05 -7.4463E-05  7.6594E-05  -76.453
   167    5   0.4810  -0.1683   3.8960  0.04810   1.0423E-04 -1.7934E-04  2.0743E-04  -59.835
   168    5   0.4810  -0.1202   3.8960  0.04810   1.8309E-04 -2.5877E-04  3.1699E-04  -54.720
   169    5   0.4810  -0.0721   3.8960  0.04810   2.5552E-04 -3.2559E-04  4.1388E-04  -51.876
   170    5   0.4810  -0.0240   3.8960  0.04810   3.1528E-04 -3.7763E-04  4.9194E-04  -50.142
   171    5   0.4810   0.0240   3.8960  0.04810   3.5383E-04 -4.0935E-04  5.4107E-04  -49.161
   172    5   0.4810   0.0721   3.8960  0.04810   3.6238E-04 -4.1347E-04  5.4979E-04  -48.768
   173    5   0.4810   0.1202   3.8960  0.04810   3.3341E-04 -3.8169E-04  5.0681E-04  -48.862
   174    5   0.4810   0.1683   3.8960  0.04810   2.5965E-04 -3.0238E-04  3.9856E-04  -49.348
   175    5   0.4810   0.2164   3.8960  0.04810   1.1061E-04 -1.3014E-04  1.7080E-04  -49.639
   176    5   0.4810  -0.2164   3.9441  0.04810   2.7749E-05 -6.4912E-05  7.0594E-05  -66.854
   177    5   0.4810  -0.1683   3.9441  0.04810   1.0468E-04 -1.5281E-04  1.8523E-04  -55.588
   178    5   0.4810  -0.1202   3.9441  0.04810   1.7393E-04 -2.2132E-04  2.8148E-04  -51.837
   179    5   0.4810  -0.0721   3.9441  0.04810   2.3827E-04 -2.7976E-04  3.6747E-04  -49.579
   180    5   0.4810  -0.0240   3.9441  0.04810   2.9153E-04 -3.2554E-04  4.3699E-04  -48.154
   181    5   0.4810   0.0240   3.9441  0.04810   3.2570E-04 -3.5367E-04  4.8079E-04  -47.358
   182    5   0.4810   0.0721   3.9441  0.04810   3.3260E-04 -3.5762E-04  4.8838E-04  -47.076
   183    5   0.4810   0.1202   3.9441  0.04810   3.0492E-04 -3.2978E-04  4.4915E-04  -47.243
   184    5   0.4810   0.1683   3.9441  0.04810   2.3541E-04 -2.6046E-04  3.5108E-04  -47.893
   185    5   0.4810   0.2164   3.9441  0.04810   9.7802E-05 -1.1692E-04  1.5243E-04  -50.089
   186    5   0.4810  -0.2164   3.9922  0.04810   3.9329E-05 -5.9002E-05  7.0909E-05  -56.314
   187    5   0.4810  -0.1683   3.9922  0.04810   1.1148E-04 -1.4972E-04  1.8667E-04  -53.329
   188    5   0.4810  -0.1202   3.9922  0.04810   1.7838E-04 -2.1981E-04  2.8308E-04  -50.941
   189    5   0.4810  -0.0721   3.9922  0.04810   2.4185E-04 -2.7879E-04  3.6907E-04  -49.059
   190    5   0.4810  -0.0240   3.9922  0.04810   2.9482E-04 -3.2448E-04  4.3842E-04  -47.742
   191    5   0.4810   0.0240   3.9922  0.04810   3.2875E-04 -3.5220E-04  4.8179E-04  -46.972
   192    5   0.4810   0.0721   3.9922  0.04810   3.3509E-04 -3.5547E-04  4.8852E-04  -46.690
   193    5   0.4810   0.1202   3.9922  0.04810   3.0606E-04 -3.2655E-04  4.4756E-04  -46.856
   194    5   0.4810   0.1683   3.9922  0.04810   2.3348E-04 -2.5537E-04  3.4601E-04  -47.564
   195    5   0.4810   0.2164   3.9922  0.04810   8.9276E-05 -1.0897E-04  1.4087E-04  -50.672
   196    5   0.4810  -0.2164   4.0403  0.04810   5.3104E-05 -5.7129E-05  7.7998E-05  -47.091
   197    5   0.4810  -0.1683   4.0403  0.04810   1.2369E-04 -1.7181E-04  2.1171E-04  -54.249
   198    5   0.4810  -0.1202   4.0403  0.04810   1.9570E-04 -2.5654E-04  3.2266E-04  -52.661
   199    5   0.4810  -0.0721   4.0403  0.04810   2.6599E-04 -3.2485E-04  4.1986E-04  -50.689
   200    5   0.4810  -0.0240   4.0403  0.04810   3.2523E-04 -3.7637E-04  4.9742E-04  -49.169
   201    5   0.4810   0.0240   4.0403  0.04810   3.6324E-04 -4.0658E-04  5.4521E-04  -48.222
   202    5   0.4810   0.0721   4.0403  0.04810   3.7026E-04 -4.0852E-04  5.5134E-04  -47.813
   203    5   0.4810   0.1202   4.0403  0.04810   3.3750E-04 -3.7333E-04  5.0327E-04  -47.886
   204    5   0.4810   0.1683   4.0403  0.04810   2.5497E-04 -2.8785E-04  3.8453E-04  -48.467
   205    5   0.4810   0.2164   4.0403  0.04810   8.4906E-05 -1.0615E-04  1.3593E-04  -51.345
   206    5   0.4810  -0.2164   4.0884  0.04810   6.9426E-05 -6.1413E-05  9.2690E-05  -41.495
   207    5   0.4810  -0.1683   4.0884  0.04810   1.5539E-04 -2.5038E-04  2.9468E-04  -58.177
   208    5   0.4810  -0.1202   4.0884  0.04810   2.4645E-04 -3.7414E-04  4.4802E-04  -56.626
   209    5   0.4810  -0.0721   4.0884  0.04810   3.3231E-04 -4.6661E-04  5.7285E-04  -54.542
   210    5   0.4810  -0.0240   4.0884  0.04810   4.0084E-04 -5.3026E-04  6.6472E-04  -52.913
   211    5   0.4810   0.0240   4.0884  0.04810   4.4028E-04 -5.6059E-04  7.1282E-04  -51.854
   212    5   0.4810   0.0721   4.0884  0.04810   4.3973E-04 -5.4977E-04  7.0399E-04  -51.346
   213    5   0.4810   0.1202   4.0884  0.04810   3.8965E-04 -4.8733E-04  6.2396E-04  -51.356
   214    5   0.4810   0.1683   4.0884  0.04810   2.8096E-04 -3.5771E-04  4.5486E-04  -51.853
   215    5   0.4810   0.2164   4.0884  0.04810   8.6823E-05 -1.1147E-04  1.4130E-04  -52.086



                                        - - - POWER BUDGET - - -

                                           INPUT POWER   = 8.1131E-03 WATTS
                                           RADIATED POWER= 7.9239E-03 WATTS
                                           STRUCTURE LOSS= 1.8920E-04 WATTS
                                           NETWORK LOSS  = 0.0000E+00 WATTS
                                           EFFICIENCY    =  97.67 PERCENT



                                                - - - RADIATION PATTERNS - - -

  - - ANGLES - -           - POWER GAINS -       - - - POLARIZATION - - -    - - - E(THETA) - - -    - - - E(PHI) - - -
  THETA     PHI        VERT.   HOR.    TOTAL      AXIAL     TILT   SENSE     MAGNITUDE    PHASE      MAGNITUDE    PHASE 
 DEGREES  DEGREES       DB      DB      DB        RATIO     DEG.              VOLTS/M    DEGREES      VOLTS/M    DEGREES
   85.00    90.00     -19.57   12.46   12.47    0.00451   -88.59  RIGHT     7.32550E-02    13.67    2.92898E+00  -155.93






 ***** DATA CARD NO.  8   EN   0     1     1  1000  8.50000E+01  9.00000E+01  0.00000E+00  0.00000E+00  0.00000E+00  0.00000E+00

 RUN TIME =     0.234
