1



                                 *********************************************

                                    NUMERICAL ELECTROMAGNETICS CODE (NEC-2D)

                                 *********************************************




                                     - - - - COMMENTS - - - -


                          No comments specified                                                      
                                                                                                     




                                 - - - STRUCTURE SPECIFICATION - - -

                                     COORDINATES MUST BE INPUT IN
                                     METERS OR BE SCALED TO METERS
                                     BEFORE STRUCTURE INPUT IS ENDED


  WIRE                                                                               NO. OF    FIRST  LAST     TAG
  NO.        X1         Y1         Z1          X2         Y2         Z2      RADIUS   SEG.     SEG.   SEG.     NO.
     1   -0.13600    0.00000    0.12000    -0.03100    0.00000    0.12000    0.00250      2        1     2       1
     2   -0.03100    0.00000    0.12000     0.02100    0.00000    0.12000    0.00250      1        3     3     999
     3    0.02100    0.00000    0.12000     0.13600    0.00000    0.12000    0.00250      2        4     5       1
     4   -0.13300   -0.33000    0.12600    -0.13300   -0.33000    0.96400    0.00250     17        6    22       3
     5    0.13300   -0.33000    0.12600     0.13300   -0.33000    0.96400    0.00250     17       23    39       3
     6   -0.13300   -0.33000    0.12600     0.13300   -0.33000    0.12600    0.00250      6       40    45       3
     7   -0.13300   -0.33000    0.96400     0.00000   -0.33000    0.96400    0.00250      3       46    48       3
     8    0.00000   -0.33000    0.96400     0.13300   -0.33000    0.96400    0.00250      3       49    51       3
     9   -0.13600    0.00000    0.00000    -0.13600    0.00000    0.12000    0.00250      3       52    54       2
    10    0.13600    0.00000    0.00000     0.13600    0.00000    0.12000    0.00250      3       55    57       2
    11   -0.13600    0.00000    0.00000     0.13600    0.00000    0.00000    0.00250      6       58    63       2
    12   -0.13600    0.00000    0.97000     0.00000    0.00000    0.97000    0.00250      3       64    66       2
    13   -0.13600    0.00000    0.12000    -0.13600    0.00000    0.97000    0.00250     17       67    83       2
    14    0.13600    0.00000    0.12000     0.13600    0.00000    0.97000    0.00250     17       84   100       2
    15    0.00000    0.00000    0.97000     0.13600    0.00000    0.97000    0.00250      3      101   103       2
    16    0.00000    0.00000    0.97000     0.00000   -0.33000    0.96400    0.00050      7      104   110       4
    17    1.00000   -0.40000    0.00000     1.00000   -0.40000    0.50000    0.00250     10      111   120       5
    18    1.00000   -0.30000    0.00000     1.00000   -0.30000    0.50000    0.00250     10      121   130       5
    19    1.00000   -0.20000    0.00000     1.00000   -0.20000    0.50000    0.00250     10      131   140       5
    20    1.00000   -0.10000    0.00000     1.00000   -0.10000    0.50000    0.00250     10      141   150       5
    21    1.00000    0.00000    0.00000     1.00000    0.00000    0.50000    0.00250     10      151   160       5
    22    1.00000    0.10000    0.00000     1.00000    0.10000    0.50000    0.00250     10      161   170       5
    23    1.00000    0.20000    0.00000     1.00000    0.20000    0.50000    0.00250     10      171   180       5
    24    1.00000    0.30000    0.00000     1.00000    0.30000    0.50000    0.00250     10      181   190       5
    25    1.00000    0.40000    0.00000     1.00000    0.40000    0.50000    0.00250     10      191   200       5
    26    1.00000    0.50000    0.00000     1.00000    0.50000    0.50000    0.00250     10      201   210       5
    27    1.00000   -0.50000    0.00000     1.00000    0.50000    0.00000    0.00250     20      211   230       5
    28    1.00000   -0.50000    0.10000     1.00000    0.50000    0.10000    0.00250     20      231   250       5
    29    1.00000   -0.50000    0.20000     1.00000    0.50000    0.20000    0.00250     20      251   270       5
    30    1.00000   -0.50000    0.30000     1.00000    0.50000    0.30000    0.00250     20      271   290       5
    31    1.00000   -0.50000    0.40000     1.00000    0.50000    0.40000    0.00250     20      291   310       5
    32    1.00000   -0.50000    0.50000     1.00000    0.50000    0.50000    0.00250     20      311   330       5
      THE STRUCTURE HAS BEEN MOVED, MOVE DATA CARD IS -
        0    0   0.00000   0.00000   0.00000   0.00000   0.00000   8.00000   0.00000

   GROUND PLANE SPECIFIED.

   TOTAL SEGMENTS USED=  330     NO. SEG. IN A SYMMETRIC CELL=  330     SYMMETRY FLAG=  0


         - MULTIPLE WIRE JUNCTIONS -
 JUNCTION    SEGMENTS  (- FOR END 1, + FOR END 2)
     1        -1   54  -67
     2         5   57  -84
     3        48  -49  110
     4        66 -101 -104
     5      -111  212 -213
     6       112 -113  232 -233
     7       114 -115  252 -253
     8       116 -117  272 -273
     9       118 -119  292 -293
    10       120  312 -313
    11      -121  214 -215
    12       122 -123  234 -235
    13       124 -125  254 -255
    14       126 -127  274 -275
    15       128 -129  294 -295
    16       130  314 -315
    17      -131  216 -217
    18       132 -133  236 -237
    19       134 -135  256 -257
    20       136 -137  276 -277
    21       138 -139  296 -297
    22       140  316 -317
    23      -141  218 -219
    24       142 -143  238 -239
    25       144 -145  258 -259
    26       146 -147  278 -279
    27       148 -149  298 -299
    28       150  318 -319
    29      -151  220 -221
    30       152 -153  240 -241
    31       154 -155  260 -261
    32       156 -157  280 -281
    33       158 -159  300 -301
    34       160  320 -321
    35      -161  222 -223
    36       162 -163  242 -243
    37       164 -165  262 -263
    38       166 -167  282 -283
    39       168 -169  302 -303
    40       170  322 -323
    41      -171  224 -225
    42       172 -173  244 -245
    43       174 -175  264 -265
    44       176 -177  284 -285
    45       178 -179  304 -305
    46       180  324 -325
    47      -181  226 -227
    48       182 -183  246 -247
    49       184 -185  266 -267
    50       186 -187  286 -287
    51       188 -189  306 -307
    52       190  326 -327
    53      -191  228 -229
    54       192 -193  248 -249
    55       194 -195  268 -269
    56       196 -197  288 -289
    57       198 -199  308 -309
    58       200  328 -329
    59       202 -203  250
    60       204 -205  270
    61       206 -207  290
    62       208 -209  310




                                 - - - - SEGMENTATION DATA - - - -

                                        COORDINATES IN METERS

                         I+ AND I- INDICATE THE SEGMENTS BEFORE AND AFTER I


  SEG.   COORDINATES OF SEG. CENTER     SEG.     ORIENTATION ANGLES    WIRE    CONNECTION DATA   TAG
  NO.       X         Y         Z       LENGTH     ALPHA     BETA      RADIUS    I-   I    I+    NO.
     1  -0.10975   0.00000   8.12000   0.05250    0.00000   0.00000   0.00250    54    1    2      1
     2  -0.05725   0.00000   8.12000   0.05250    0.00000   0.00000   0.00250     1    2    3      1
     3  -0.00500   0.00000   8.12000   0.05200    0.00000   0.00000   0.00250     2    3    4    999
     4   0.04975   0.00000   8.12000   0.05750    0.00000   0.00000   0.00250     3    4    5      1
     5   0.10725   0.00000   8.12000   0.05750    0.00000   0.00000   0.00250     4    5  -57      1
     6  -0.13300  -0.33000   8.15065   0.04929   90.00000   0.00000   0.00250   -40    6    7      3
     7  -0.13300  -0.33000   8.19994   0.04929   90.00000   0.00000   0.00250     6    7    8      3
     8  -0.13300  -0.33000   8.24924   0.04929   90.00000   0.00000   0.00250     7    8    9      3
     9  -0.13300  -0.33000   8.29853   0.04929   90.00000   0.00000   0.00250     8    9   10      3
    10  -0.13300  -0.33000   8.34782   0.04929   90.00000   0.00000   0.00250     9   10   11      3
    11  -0.13300  -0.33000   8.39712   0.04929   90.00000   0.00000   0.00250    10   11   12      3
    12  -0.13300  -0.33000   8.44641   0.04929   90.00000   0.00000   0.00250    11   12   13      3
    13  -0.13300  -0.33000   8.49571   0.04929   90.00000   0.00000   0.00250    12   13   14      3
    14  -0.13300  -0.33000   8.54500   0.04929   90.00000   0.00000   0.00250    13   14   15      3
    15  -0.13300  -0.33000   8.59429   0.04929   90.00000   0.00000   0.00250    14   15   16      3
    16  -0.13300  -0.33000   8.64359   0.04929   90.00000   0.00000   0.00250    15   16   17      3
    17  -0.13300  -0.33000   8.69288   0.04929   90.00000   0.00000   0.00250    16   17   18      3
    18  -0.13300  -0.33000   8.74218   0.04929   90.00000   0.00000   0.00250    17   18   19      3
    19  -0.13300  -0.33000   8.79147   0.04929   90.00000   0.00000   0.00250    18   19   20      3
    20  -0.13300  -0.33000   8.84076   0.04929   90.00000   0.00000   0.00250    19   20   21      3
    21  -0.13300  -0.33000   8.89006   0.04929   90.00000   0.00000   0.00250    20   21   22      3
    22  -0.13300  -0.33000   8.93935   0.04929   90.00000   0.00000   0.00250    21   22   46      3
    23   0.13300  -0.33000   8.15065   0.04929   90.00000   0.00000   0.00250    45   23   24      3
    24   0.13300  -0.33000   8.19994   0.04929   90.00000   0.00000   0.00250    23   24   25      3
    25   0.13300  -0.33000   8.24924   0.04929   90.00000   0.00000   0.00250    24   25   26      3
    26   0.13300  -0.33000   8.29853   0.04929   90.00000   0.00000   0.00250    25   26   27      3
    27   0.13300  -0.33000   8.34782   0.04929   90.00000   0.00000   0.00250    26   27   28      3
    28   0.13300  -0.33000   8.39712   0.04929   90.00000   0.00000   0.00250    27   28   29      3
    29   0.13300  -0.33000   8.44641   0.04929   90.00000   0.00000   0.00250    28   29   30      3
    30   0.13300  -0.33000   8.49571   0.04929   90.00000   0.00000   0.00250    29   30   31      3
    31   0.13300  -0.33000   8.54500   0.04929   90.00000   0.00000   0.00250    30   31   32      3
    32   0.13300  -0.33000   8.59429   0.04929   90.00000   0.00000   0.00250    31   32   33      3
    33   0.13300  -0.33000   8.64359   0.04929   90.00000   0.00000   0.00250    32   33   34      3
    34   0.13300  -0.33000   8.69288   0.04929   90.00000   0.00000   0.00250    33   34   35      3
    35   0.13300  -0.33000   8.74218   0.04929   90.00000   0.00000   0.00250    34   35   36      3
    36   0.13300  -0.33000   8.79147   0.04929   90.00000   0.00000   0.00250    35   36   37      3
    37   0.13300  -0.33000   8.84076   0.04929   90.00000   0.00000   0.00250    36   37   38      3
    38   0.13300  -0.33000   8.89006   0.04929   90.00000   0.00000   0.00250    37   38   39      3
    39   0.13300  -0.33000   8.93935   0.04929   90.00000   0.00000   0.00250    38   39  -51      3
    40  -0.11083  -0.33000   8.12600   0.04433    0.00000   0.00000   0.00250    -6   40   41      3
    41  -0.06650  -0.33000   8.12600   0.04433    0.00000   0.00000   0.00250    40   41   42      3
    42  -0.02217  -0.33000   8.12600   0.04433    0.00000   0.00000   0.00250    41   42   43      3
    43   0.02217  -0.33000   8.12600   0.04433    0.00000   0.00000   0.00250    42   43   44      3
    44   0.06650  -0.33000   8.12600   0.04433    0.00000   0.00000   0.00250    43   44   45      3
    45   0.11083  -0.33000   8.12600   0.04433    0.00000   0.00000   0.00250    44   45   23      3
    46  -0.11083  -0.33000   8.96400   0.04433    0.00000   0.00000   0.00250    22   46   47      3
    47  -0.06650  -0.33000   8.96400   0.04433    0.00000   0.00000   0.00250    46   47   48      3
    48  -0.02217  -0.33000   8.96400   0.04433    0.00000   0.00000   0.00250    47   48   49      3
    49   0.02217  -0.33000   8.96400   0.04433    0.00000   0.00000   0.00250   110   49   50      3
    50   0.06650  -0.33000   8.96400   0.04433    0.00000   0.00000   0.00250    49   50   51      3
    51   0.11083  -0.33000   8.96400   0.04433    0.00000   0.00000   0.00250    50   51  -39      3
    52  -0.13600   0.00000   8.02000   0.04000   90.00000   0.00000   0.00250   -58   52   53      2
    53  -0.13600   0.00000   8.06000   0.04000   90.00000   0.00000   0.00250    52   53   54      2
    54  -0.13600   0.00000   8.10000   0.04000   90.00000   0.00000   0.00250    53   54   67      2
    55   0.13600   0.00000   8.02000   0.04000   90.00000   0.00000   0.00250    63   55   56      2
    56   0.13600   0.00000   8.06000   0.04000   90.00000   0.00000   0.00250    55   56   57      2
    57   0.13600   0.00000   8.10000   0.04000   90.00000   0.00000   0.00250    56   57   84      2
    58  -0.11333   0.00000   8.00000   0.04533    0.00000   0.00000   0.00250   -52   58   59      2
    59  -0.06800   0.00000   8.00000   0.04533    0.00000   0.00000   0.00250    58   59   60      2
    60  -0.02267   0.00000   8.00000   0.04533    0.00000   0.00000   0.00250    59   60   61      2
    61   0.02267   0.00000   8.00000   0.04533    0.00000   0.00000   0.00250    60   61   62      2
    62   0.06800   0.00000   8.00000   0.04533    0.00000   0.00000   0.00250    61   62   63      2
    63   0.11333   0.00000   8.00000   0.04533    0.00000   0.00000   0.00250    62   63   55      2
    64  -0.11333   0.00000   8.97000   0.04533    0.00000   0.00000   0.00250    83   64   65      2
    65  -0.06800   0.00000   8.97000   0.04533    0.00000   0.00000   0.00250    64   65   66      2
    66  -0.02267   0.00000   8.97000   0.04533    0.00000   0.00000   0.00250    65   66  101      2
    67  -0.13600   0.00000   8.14500   0.05000   90.00000   0.00000   0.00250    -1   67   68      2
    68  -0.13600   0.00000   8.19500   0.05000   90.00000   0.00000   0.00250    67   68   69      2
    69  -0.13600   0.00000   8.24500   0.05000   90.00000   0.00000   0.00250    68   69   70      2
    70  -0.13600   0.00000   8.29500   0.05000   90.00000   0.00000   0.00250    69   70   71      2
    71  -0.13600   0.00000   8.34500   0.05000   90.00000   0.00000   0.00250    70   71   72      2
    72  -0.13600   0.00000   8.39500   0.05000   90.00000   0.00000   0.00250    71   72   73      2
    73  -0.13600   0.00000   8.44500   0.05000   90.00000   0.00000   0.00250    72   73   74      2
    74  -0.13600   0.00000   8.49500   0.05000   90.00000   0.00000   0.00250    73   74   75      2
    75  -0.13600   0.00000   8.54500   0.05000   90.00000   0.00000   0.00250    74   75   76      2
    76  -0.13600   0.00000   8.59500   0.05000   90.00000   0.00000   0.00250    75   76   77      2
    77  -0.13600   0.00000   8.64500   0.05000   90.00000   0.00000   0.00250    76   77   78      2
    78  -0.13600   0.00000   8.69500   0.05000   90.00000   0.00000   0.00250    77   78   79      2
    79  -0.13600   0.00000   8.74500   0.05000   90.00000   0.00000   0.00250    78   79   80      2
    80  -0.13600   0.00000   8.79500   0.05000   90.00000   0.00000   0.00250    79   80   81      2
    81  -0.13600   0.00000   8.84500   0.05000   90.00000   0.00000   0.00250    80   81   82      2
    82  -0.13600   0.00000   8.89500   0.05000   90.00000   0.00000   0.00250    81   82   83      2
    83  -0.13600   0.00000   8.94500   0.05000   90.00000   0.00000   0.00250    82   83   64      2
    84   0.13600   0.00000   8.14500   0.05000   90.00000   0.00000   0.00250     5   84   85      2
    85   0.13600   0.00000   8.19500   0.05000   90.00000   0.00000   0.00250    84   85   86      2
    86   0.13600   0.00000   8.24500   0.05000   90.00000   0.00000   0.00250    85   86   87      2
    87   0.13600   0.00000   8.29500   0.05000   90.00000   0.00000   0.00250    86   87   88      2
    88   0.13600   0.00000   8.34500   0.05000   90.00000   0.00000   0.00250    87   88   89      2
    89   0.13600   0.00000   8.39500   0.05000   90.00000   0.00000   0.00250    88   89   90      2
    90   0.13600   0.00000   8.44500   0.05000   90.00000   0.00000   0.00250    89   90   91      2
    91   0.13600   0.00000   8.49500   0.05000   90.00000   0.00000   0.00250    90   91   92      2
    92   0.13600   0.00000   8.54500   0.05000   90.00000   0.00000   0.00250    91   92   93      2
    93   0.13600   0.00000   8.59500   0.05000   90.00000   0.00000   0.00250    92   93   94      2
    94   0.13600   0.00000   8.64500   0.05000   90.00000   0.00000   0.00250    93   94   95      2
    95   0.13600   0.00000   8.69500   0.05000   90.00000   0.00000   0.00250    94   95   96      2
    96   0.13600   0.00000   8.74500   0.05000   90.00000   0.00000   0.00250    95   96   97      2
    97   0.13600   0.00000   8.79500   0.05000   90.00000   0.00000   0.00250    96   97   98      2
    98   0.13600   0.00000   8.84500   0.05000   90.00000   0.00000   0.00250    97   98   99      2
    99   0.13600   0.00000   8.89500   0.05000   90.00000   0.00000   0.00250    98   99  100      2
   100   0.13600   0.00000   8.94500   0.05000   90.00000   0.00000   0.00250    99  100 -103      2
   101   0.02267   0.00000   8.97000   0.04533    0.00000   0.00000   0.00250  -104  101  102      2
   102   0.06800   0.00000   8.97000   0.04533    0.00000   0.00000   0.00250   101  102  103      2
   103   0.11333   0.00000   8.97000   0.04533    0.00000   0.00000   0.00250   102  103 -100      2
   104   0.00000  -0.02357   8.96957   0.04715   -1.04163 -90.00000   0.00050    66  104  105      4
   105   0.00000  -0.07071   8.96871   0.04715   -1.04163 -90.00000   0.00050   104  105  106      4
   106   0.00000  -0.11786   8.96786   0.04715   -1.04163 -90.00000   0.00050   105  106  107      4
   107   0.00000  -0.16500   8.96700   0.04715   -1.04163 -90.00000   0.00050   106  107  108      4
   108   0.00000  -0.21214   8.96614   0.04715   -1.04163 -90.00000   0.00050   107  108  109      4
   109   0.00000  -0.25929   8.96529   0.04715   -1.04163 -90.00000   0.00050   108  109  110      4
   110   0.00000  -0.30643   8.96443   0.04715   -1.04163 -90.00000   0.00050   109  110  -48      4
   111   1.00000  -0.40000   8.02500   0.05000   90.00000  90.00000   0.00250   212  111  112      5
   112   1.00000  -0.40000   8.07500   0.05000   90.00000   0.00000   0.00250   111  112  113      5
   113   1.00000  -0.40000   8.12500   0.05000   90.00000   0.00000   0.00250   232  113  114      5
   114   1.00000  -0.40000   8.17500   0.05000   90.00000   0.00000   0.00250   113  114  115      5
   115   1.00000  -0.40000   8.22500   0.05000   90.00000   0.00000   0.00250   252  115  116      5
   116   1.00000  -0.40000   8.27500   0.05000   90.00000   0.00000   0.00250   115  116  117      5
   117   1.00000  -0.40000   8.32500   0.05000   90.00000   0.00000   0.00250   272  117  118      5
   118   1.00000  -0.40000   8.37500   0.05000   90.00000   0.00000   0.00250   117  118  119      5
   119   1.00000  -0.40000   8.42500   0.05000   90.00000   0.00000   0.00250   292  119  120      5
   120   1.00000  -0.40000   8.47500   0.05000   90.00000 -90.00000   0.00250   119  120 -312      5
   121   1.00000  -0.30000   8.02500   0.05000   90.00000   0.00000   0.00250   214  121  122      5
   122   1.00000  -0.30000   8.07500   0.05000   90.00000   0.00000   0.00250   121  122  123      5
   123   1.00000  -0.30000   8.12500   0.05000   90.00000   0.00000   0.00250   234  123  124      5
   124   1.00000  -0.30000   8.17500   0.05000   90.00000   0.00000   0.00250   123  124  125      5
   125   1.00000  -0.30000   8.22500   0.05000   90.00000   0.00000   0.00250   254  125  126      5
   126   1.00000  -0.30000   8.27500   0.05000   90.00000   0.00000   0.00250   125  126  127      5
   127   1.00000  -0.30000   8.32500   0.05000   90.00000   0.00000   0.00250   274  127  128      5
   128   1.00000  -0.30000   8.37500   0.05000   90.00000   0.00000   0.00250   127  128  129      5
   129   1.00000  -0.30000   8.42500   0.05000   90.00000   0.00000   0.00250   294  129  130      5
   130   1.00000  -0.30000   8.47500   0.05000   90.00000   0.00000   0.00250   129  130 -314      5
   131   1.00000  -0.20000   8.02500   0.05000   90.00000 -90.00000   0.00250   216  131  132      5
   132   1.00000  -0.20000   8.07500   0.05000   90.00000  90.00000   0.00250   131  132  133      5
   133   1.00000  -0.20000   8.12500   0.05000   90.00000 -90.00000   0.00250   236  133  134      5
   134   1.00000  -0.20000   8.17500   0.05000   90.00000  90.00000   0.00250   133  134  135      5
   135   1.00000  -0.20000   8.22500   0.05000   90.00000 -90.00000   0.00250   256  135  136      5
   136   1.00000  -0.20000   8.27500   0.05000   90.00000  90.00000   0.00250   135  136  137      5
   137   1.00000  -0.20000   8.32500   0.05000   90.00000 -90.00000   0.00250   276  137  138      5
   138   1.00000  -0.20000   8.37500   0.05000   90.00000  90.00000   0.00250   137  138  139      5
   139   1.00000  -0.20000   8.42500   0.05000   90.00000 -90.00000   0.00250   296  139  140      5
   140   1.00000  -0.20000   8.47500   0.05000   90.00000  90.00000   0.00250   139  140 -316      5
   141   1.00000  -0.10000   8.02500   0.05000   90.00000 -90.00000   0.00250   218  141  142      5
   142   1.00000  -0.10000   8.07500   0.05000   90.00000  90.00000   0.00250   141  142  143      5
   143   1.00000  -0.10000   8.12500   0.05000   90.00000 -90.00000   0.00250   238  143  144      5
   144   1.00000  -0.10000   8.17500   0.05000   90.00000  90.00000   0.00250   143  144  145      5
   145   1.00000  -0.10000   8.22500   0.05000   90.00000 -90.00000   0.00250   258  145  146      5
   146   1.00000  -0.10000   8.27500   0.05000   90.00000  90.00000   0.00250   145  146  147      5
   147   1.00000  -0.10000   8.32500   0.05000   90.00000 -90.00000   0.00250   278  147  148      5
   148   1.00000  -0.10000   8.37500   0.05000   90.00000  90.00000   0.00250   147  148  149      5
   149   1.00000  -0.10000   8.42500   0.05000   90.00000 -90.00000   0.00250   298  149  150      5
   150   1.00000  -0.10000   8.47500   0.05000   90.00000  90.00000   0.00250   149  150 -318      5
   151   1.00000   0.00000   8.02500   0.05000   90.00000 -90.00000   0.00250   220  151  152      5
   152   1.00000   0.00000   8.07500   0.05000   90.00000  90.00000   0.00250   151  152  153      5
   153   1.00000   0.00000   8.12500   0.05000   90.00000 -90.00000   0.00250   240  153  154      5
   154   1.00000   0.00000   8.17500   0.05000   90.00000  90.00000   0.00250   153  154  155      5
   155   1.00000   0.00000   8.22500   0.05000   90.00000 -90.00000   0.00250   260  155  156      5
   156   1.00000   0.00000   8.27500   0.05000   90.00000  90.00000   0.00250   155  156  157      5
   157   1.00000   0.00000   8.32500   0.05000   90.00000 -90.00000   0.00250   280  157  158      5
   158   1.00000   0.00000   8.37500   0.05000   90.00000  90.00000   0.00250   157  158  159      5
   159   1.00000   0.00000   8.42500   0.05000   90.00000 -90.00000   0.00250   300  159  160      5
   160   1.00000   0.00000   8.47500   0.05000   90.00000  90.00000   0.00250   159  160 -320      5
   161   1.00000   0.10000   8.02500   0.05000   90.00000 -90.00000   0.00250   222  161  162      5
   162   1.00000   0.10000   8.07500   0.05000   90.00000  90.00000   0.00250   161  162  163      5
   163   1.00000   0.10000   8.12500   0.05000   90.00000 -90.00000   0.00250   242  163  164      5
   164   1.00000   0.10000   8.17500   0.05000   90.00000  90.00000   0.00250   163  164  165      5
   165   1.00000   0.10000   8.22500   0.05000   90.00000 -90.00000   0.00250   262  165  166      5
   166   1.00000   0.10000   8.27500   0.05000   90.00000  90.00000   0.00250   165  166  167      5
   167   1.00000   0.10000   8.32500   0.05000   90.00000 -90.00000   0.00250   282  167  168      5
   168   1.00000   0.10000   8.37500   0.05000   90.00000  90.00000   0.00250   167  168  169      5
   169   1.00000   0.10000   8.42500   0.05000   90.00000 -90.00000   0.00250   302  169  170      5
   170   1.00000   0.10000   8.47500   0.05000   90.00000  90.00000   0.00250   169  170 -322      5
   171   1.00000   0.20000   8.02500   0.05000   90.00000 -90.00000   0.00250   224  171  172      5
   172   1.00000   0.20000   8.07500   0.05000   90.00000  90.00000   0.00250   171  172  173      5
   173   1.00000   0.20000   8.12500   0.05000   90.00000 -90.00000   0.00250   244  173  174      5
   174   1.00000   0.20000   8.17500   0.05000   90.00000  90.00000   0.00250   173  174  175      5
   175   1.00000   0.20000   8.22500   0.05000   90.00000 -90.00000   0.00250   264  175  176      5
   176   1.00000   0.20000   8.27500   0.05000   90.00000  90.00000   0.00250   175  176  177      5
   177   1.00000   0.20000   8.32500   0.05000   90.00000 -90.00000   0.00250   284  177  178      5
   178   1.00000   0.20000   8.37500   0.05000   90.00000  90.00000   0.00250   177  178  179      5
   179   1.00000   0.20000   8.42500   0.05000   90.00000 -90.00000   0.00250   304  179  180      5
   180   1.00000   0.20000   8.47500   0.05000   90.00000  90.00000   0.00250   179  180 -324      5
   181   1.00000   0.30000   8.02500   0.05000   90.00000 -90.00000   0.00250   226  181  182      5
   182   1.00000   0.30000   8.07500   0.05000   90.00000  90.00000   0.00250   181  182  183      5
   183   1.00000   0.30000   8.12500   0.05000   90.00000 -90.00000   0.00250   246  183  184      5
   184   1.00000   0.30000   8.17500   0.05000   90.00000  90.00000   0.00250   183  184  185      5
   185   1.00000   0.30000   8.22500   0.05000   90.00000 -90.00000   0.00250   266  185  186      5
   186   1.00000   0.30000   8.27500   0.05000   90.00000  90.00000   0.00250   185  186  187      5
   187   1.00000   0.30000   8.32500   0.05000   90.00000 -90.00000   0.00250   286  187  188      5
   188   1.00000   0.30000   8.37500   0.05000   90.00000  90.00000   0.00250   187  188  189      5
   189   1.00000   0.30000   8.42500   0.05000   90.00000 -90.00000   0.00250   306  189  190      5
   190   1.00000   0.30000   8.47500   0.05000   90.00000  90.00000   0.00250   189  190 -326      5
   191   1.00000   0.40000   8.02500   0.05000   90.00000 -90.00000   0.00250   228  191  192      5
   192   1.00000   0.40000   8.07500   0.05000   90.00000   0.00000   0.00250   191  192  193      5
   193   1.00000   0.40000   8.12500   0.05000   90.00000   0.00000   0.00250   248  193  194      5
   194   1.00000   0.40000   8.17500   0.05000   90.00000   0.00000   0.00250   193  194  195      5
   195   1.00000   0.40000   8.22500   0.05000   90.00000   0.00000   0.00250   268  195  196      5
   196   1.00000   0.40000   8.27500   0.05000   90.00000   0.00000   0.00250   195  196  197      5
   197   1.00000   0.40000   8.32500   0.05000   90.00000   0.00000   0.00250   288  197  198      5
   198   1.00000   0.40000   8.37500   0.05000   90.00000   0.00000   0.00250   197  198  199      5
   199   1.00000   0.40000   8.42500   0.05000   90.00000   0.00000   0.00250   308  199  200      5
   200   1.00000   0.40000   8.47500   0.05000   90.00000  90.00000   0.00250   199  200 -328      5
   201   1.00000   0.50000   8.02500   0.05000   90.00000   0.00000   0.00250   230  201  202      5
   202   1.00000   0.50000   8.07500   0.05000   90.00000   0.00000   0.00250   201  202  203      5
   203   1.00000   0.50000   8.12500   0.05000   90.00000   0.00000   0.00250   250  203  204      5
   204   1.00000   0.50000   8.17500   0.05000   90.00000   0.00000   0.00250   203  204  205      5
   205   1.00000   0.50000   8.22500   0.05000   90.00000   0.00000   0.00250   270  205  206      5
   206   1.00000   0.50000   8.27500   0.05000   90.00000   0.00000   0.00250   205  206  207      5
   207   1.00000   0.50000   8.32500   0.05000   90.00000   0.00000   0.00250   290  207  208      5
   208   1.00000   0.50000   8.37500   0.05000   90.00000   0.00000   0.00250   207  208  209      5
   209   1.00000   0.50000   8.42500   0.05000   90.00000   0.00000   0.00250   310  209  210      5
   210   1.00000   0.50000   8.47500   0.05000   90.00000   0.00000   0.00250   209  210 -330      5
   211   1.00000  -0.47500   8.00000   0.05000    0.00000  90.00000   0.00250     0  211  212      5
   212   1.00000  -0.42500   8.00000   0.05000    0.00000  90.00000   0.00250   211  212  213      5
   213   1.00000  -0.37500   8.00000   0.05000    0.00000  90.00000   0.00250  -111  213  214      5
   214   1.00000  -0.32500   8.00000   0.05000    0.00000  90.00000   0.00250   213  214  215      5
   215   1.00000  -0.27500   8.00000   0.05000    0.00000  90.00000   0.00250  -121  215  216      5
   216   1.00000  -0.22500   8.00000   0.05000    0.00000  90.00000   0.00250   215  216  217      5
   217   1.00000  -0.17500   8.00000   0.05000    0.00000  90.00000   0.00250  -131  217  218      5
   218   1.00000  -0.12500   8.00000   0.05000    0.00000  90.00000   0.00250   217  218  219      5
   219   1.00000  -0.07500   8.00000   0.05000    0.00000  90.00000   0.00250  -141  219  220      5
   220   1.00000  -0.02500   8.00000   0.05000    0.00000  90.00000   0.00250   219  220  221      5
   221   1.00000   0.02500   8.00000   0.05000    0.00000  90.00000   0.00250  -151  221  222      5
   222   1.00000   0.07500   8.00000   0.05000    0.00000  90.00000   0.00250   221  222  223      5
   223   1.00000   0.12500   8.00000   0.05000    0.00000  90.00000   0.00250  -161  223  224      5
   224   1.00000   0.17500   8.00000   0.05000    0.00000  90.00000   0.00250   223  224  225      5
   225   1.00000   0.22500   8.00000   0.05000    0.00000  90.00000   0.00250  -171  225  226      5
   226   1.00000   0.27500   8.00000   0.05000    0.00000  90.00000   0.00250   225  226  227      5
   227   1.00000   0.32500   8.00000   0.05000    0.00000  90.00000   0.00250  -181  227  228      5
   228   1.00000   0.37500   8.00000   0.05000    0.00000  90.00000   0.00250   227  228  229      5
   229   1.00000   0.42500   8.00000   0.05000    0.00000  90.00000   0.00250  -191  229  230      5
   230   1.00000   0.47500   8.00000   0.05000    0.00000  90.00000   0.00250   229  230  201      5
   231   1.00000  -0.47500   8.10000   0.05000    0.00000  90.00000   0.00250     0  231  232      5
   232   1.00000  -0.42500   8.10000   0.05000    0.00000  90.00000   0.00250   231  232  233      5
   233   1.00000  -0.37500   8.10000   0.05000    0.00000  90.00000   0.00250   112  233  234      5
   234   1.00000  -0.32500   8.10000   0.05000    0.00000  90.00000   0.00250   233  234  235      5
   235   1.00000  -0.27500   8.10000   0.05000    0.00000  90.00000   0.00250   122  235  236      5
   236   1.00000  -0.22500   8.10000   0.05000    0.00000  90.00000   0.00250   235  236  237      5
   237   1.00000  -0.17500   8.10000   0.05000    0.00000  90.00000   0.00250   132  237  238      5
   238   1.00000  -0.12500   8.10000   0.05000    0.00000  90.00000   0.00250   237  238  239      5
   239   1.00000  -0.07500   8.10000   0.05000    0.00000  90.00000   0.00250   142  239  240      5
   240   1.00000  -0.02500   8.10000   0.05000    0.00000  90.00000   0.00250   239  240  241      5
   241   1.00000   0.02500   8.10000   0.05000    0.00000  90.00000   0.00250   152  241  242      5
   242   1.00000   0.07500   8.10000   0.05000    0.00000  90.00000   0.00250   241  242  243      5
   243   1.00000   0.12500   8.10000   0.05000    0.00000  90.00000   0.00250   162  243  244      5
   244   1.00000   0.17500   8.10000   0.05000    0.00000  90.00000   0.00250   243  244  245      5
   245   1.00000   0.22500   8.10000   0.05000    0.00000  90.00000   0.00250   172  245  246      5
   246   1.00000   0.27500   8.10000   0.05000    0.00000  90.00000   0.00250   245  246  247      5
   247   1.00000   0.32500   8.10000   0.05000    0.00000  90.00000   0.00250   182  247  248      5
   248   1.00000   0.37500   8.10000   0.05000    0.00000  90.00000   0.00250   247  248  249      5
   249   1.00000   0.42500   8.10000   0.05000    0.00000  90.00000   0.00250   192  249  250      5
   250   1.00000   0.47500   8.10000   0.05000    0.00000  90.00000   0.00250   249  250 -202      5
   251   1.00000  -0.47500   8.20000   0.05000    0.00000  90.00000   0.00250     0  251  252      5
   252   1.00000  -0.42500   8.20000   0.05000    0.00000  90.00000   0.00250   251  252  253      5
   253   1.00000  -0.37500   8.20000   0.05000    0.00000  90.00000   0.00250   114  253  254      5
   254   1.00000  -0.32500   8.20000   0.05000    0.00000  90.00000   0.00250   253  254  255      5
   255   1.00000  -0.27500   8.20000   0.05000    0.00000  90.00000   0.00250   124  255  256      5
   256   1.00000  -0.22500   8.20000   0.05000    0.00000  90.00000   0.00250   255  256  257      5
   257   1.00000  -0.17500   8.20000   0.05000    0.00000  90.00000   0.00250   134  257  258      5
   258   1.00000  -0.12500   8.20000   0.05000    0.00000  90.00000   0.00250   257  258  259      5
   259   1.00000  -0.07500   8.20000   0.05000    0.00000  90.00000   0.00250   144  259  260      5
   260   1.00000  -0.02500   8.20000   0.05000    0.00000  90.00000   0.00250   259  260  261      5
   261   1.00000   0.02500   8.20000   0.05000    0.00000  90.00000   0.00250   154  261  262      5
   262   1.00000   0.07500   8.20000   0.05000    0.00000  90.00000   0.00250   261  262  263      5
   263   1.00000   0.12500   8.20000   0.05000    0.00000  90.00000   0.00250   164  263  264      5
   264   1.00000   0.17500   8.20000   0.05000    0.00000  90.00000   0.00250   263  264  265      5
   265   1.00000   0.22500   8.20000   0.05000    0.00000  90.00000   0.00250   174  265  266      5
   266   1.00000   0.27500   8.20000   0.05000    0.00000  90.00000   0.00250   265  266  267      5
   267   1.00000   0.32500   8.20000   0.05000    0.00000  90.00000   0.00250   184  267  268      5
   268   1.00000   0.37500   8.20000   0.05000    0.00000  90.00000   0.00250   267  268  269      5
   269   1.00000   0.42500   8.20000   0.05000    0.00000  90.00000   0.00250   194  269  270      5
   270   1.00000   0.47500   8.20000   0.05000    0.00000  90.00000   0.00250   269  270 -204      5
   271   1.00000  -0.47500   8.30000   0.05000    0.00000  90.00000   0.00250     0  271  272      5
   272   1.00000  -0.42500   8.30000   0.05000    0.00000  90.00000   0.00250   271  272  273      5
   273   1.00000  -0.37500   8.30000   0.05000    0.00000  90.00000   0.00250   116  273  274      5
   274   1.00000  -0.32500   8.30000   0.05000    0.00000  90.00000   0.00250   273  274  275      5
   275   1.00000  -0.27500   8.30000   0.05000    0.00000  90.00000   0.00250   126  275  276      5
   276   1.00000  -0.22500   8.30000   0.05000    0.00000  90.00000   0.00250   275  276  277      5
   277   1.00000  -0.17500   8.30000   0.05000    0.00000  90.00000   0.00250   136  277  278      5
   278   1.00000  -0.12500   8.30000   0.05000    0.00000  90.00000   0.00250   277  278  279      5
   279   1.00000  -0.07500   8.30000   0.05000    0.00000  90.00000   0.00250   146  279  280      5
   280   1.00000  -0.02500   8.30000   0.05000    0.00000  90.00000   0.00250   279  280  281      5
   281   1.00000   0.02500   8.30000   0.05000    0.00000  90.00000   0.00250   156  281  282      5
   282   1.00000   0.07500   8.30000   0.05000    0.00000  90.00000   0.00250   281  282  283      5
   283   1.00000   0.12500   8.30000   0.05000    0.00000  90.00000   0.00250   166  283  284      5
   284   1.00000   0.17500   8.30000   0.05000    0.00000  90.00000   0.00250   283  284  285      5
   285   1.00000   0.22500   8.30000   0.05000    0.00000  90.00000   0.00250   176  285  286      5
   286   1.00000   0.27500   8.30000   0.05000    0.00000  90.00000   0.00250   285  286  287      5
   287   1.00000   0.32500   8.30000   0.05000    0.00000  90.00000   0.00250   186  287  288      5
   288   1.00000   0.37500   8.30000   0.05000    0.00000  90.00000   0.00250   287  288  289      5
   289   1.00000   0.42500   8.30000   0.05000    0.00000  90.00000   0.00250   196  289  290      5
   290   1.00000   0.47500   8.30000   0.05000    0.00000  90.00000   0.00250   289  290 -206      5
   291   1.00000  -0.47500   8.40000   0.05000    0.00000  90.00000   0.00250     0  291  292      5
   292   1.00000  -0.42500   8.40000   0.05000    0.00000  90.00000   0.00250   291  292  293      5
   293   1.00000  -0.37500   8.40000   0.05000    0.00000  90.00000   0.00250   118  293  294      5
   294   1.00000  -0.32500   8.40000   0.05000    0.00000  90.00000   0.00250   293  294  295      5
   295   1.00000  -0.27500   8.40000   0.05000    0.00000  90.00000   0.00250   128  295  296      5
   296   1.00000  -0.22500   8.40000   0.05000    0.00000  90.00000   0.00250   295  296  297      5
   297   1.00000  -0.17500   8.40000   0.05000    0.00000  90.00000   0.00250   138  297  298      5
   298   1.00000  -0.12500   8.40000   0.05000    0.00000  90.00000   0.00250   297  298  299      5
   299   1.00000  -0.07500   8.40000   0.05000    0.00000  90.00000   0.00250   148  299  300      5
   300   1.00000  -0.02500   8.40000   0.05000    0.00000  90.00000   0.00250   299  300  301      5
   301   1.00000   0.02500   8.40000   0.05000    0.00000  90.00000   0.00250   158  301  302      5
   302   1.00000   0.07500   8.40000   0.05000    0.00000  90.00000   0.00250   301  302  303      5
   303   1.00000   0.12500   8.40000   0.05000    0.00000  90.00000   0.00250   168  303  304      5
   304   1.00000   0.17500   8.40000   0.05000    0.00000  90.00000   0.00250   303  304  305      5
   305   1.00000   0.22500   8.40000   0.05000    0.00000  90.00000   0.00250   178  305  306      5
   306   1.00000   0.27500   8.40000   0.05000    0.00000  90.00000   0.00250   305  306  307      5
   307   1.00000   0.32500   8.40000   0.05000    0.00000  90.00000   0.00250   188  307  308      5
   308   1.00000   0.37500   8.40000   0.05000    0.00000  90.00000   0.00250   307  308  309      5
   309   1.00000   0.42500   8.40000   0.05000    0.00000  90.00000   0.00250   198  309  310      5
   310   1.00000   0.47500   8.40000   0.05000    0.00000  90.00000   0.00250   309  310 -208      5
   311   1.00000  -0.47500   8.50000   0.05000    0.00000  90.00000   0.00250     0  311  312      5
   312   1.00000  -0.42500   8.50000   0.05000    0.00000  90.00000   0.00250   311  312  313      5
   313   1.00000  -0.37500   8.50000   0.05000    0.00000  90.00000   0.00250   120  313  314      5
   314   1.00000  -0.32500   8.50000   0.05000    0.00000  90.00000   0.00250   313  314  315      5
   315   1.00000  -0.27500   8.50000   0.05000    0.00000  90.00000   0.00250   130  315  316      5
   316   1.00000  -0.22500   8.50000   0.05000    0.00000  90.00000   0.00250   315  316  317      5
   317   1.00000  -0.17500   8.50000   0.05000    0.00000  90.00000   0.00250   140  317  318      5
   318   1.00000  -0.12500   8.50000   0.05000    0.00000  90.00000   0.00250   317  318  319      5
   319   1.00000  -0.07500   8.50000   0.05000    0.00000  90.00000   0.00250   150  319  320      5
   320   1.00000  -0.02500   8.50000   0.05000    0.00000  90.00000   0.00250   319  320  321      5
   321   1.00000   0.02500   8.50000   0.05000    0.00000  90.00000   0.00250   160  321  322      5
   322   1.00000   0.07500   8.50000   0.05000    0.00000  90.00000   0.00250   321  322  323      5
   323   1.00000   0.12500   8.50000   0.05000    0.00000  90.00000   0.00250   170  323  324      5
   324   1.00000   0.17500   8.50000   0.05000    0.00000  90.00000   0.00250   323  324  325      5
   325   1.00000   0.22500   8.50000   0.05000    0.00000  90.00000   0.00250   180  325  326      5
   326   1.00000   0.27500   8.50000   0.05000    0.00000  90.00000   0.00250   325  326  327      5
   327   1.00000   0.32500   8.50000   0.05000    0.00000  90.00000   0.00250   190  327  328      5
   328   1.00000   0.37500   8.50000   0.05000    0.00000  90.00000   0.00250   327  328  329      5
   329   1.00000   0.42500   8.50000   0.05000    0.00000  90.00000   0.00250   200  329  330      5
   330   1.00000   0.47500   8.50000   0.05000    0.00000  90.00000   0.00250   329  330 -210      5






 ***** DATA CARD NO.  1   GN   2     0     0     0  1.10000E+01  1.00000E-02  0.00000E+00  0.00000E+00  0.00000E+00  0.00000E+00
 ***** DATA CARD NO.  2   EK   0     0     0     0  0.00000E+00  0.00000E+00  0.00000E+00  0.00000E+00  0.00000E+00  0.00000E+00
 ***** DATA CARD NO.  3   LD   5     0     0     0  5.80000E+07  0.00000E+00  0.00000E+00  0.00000E+00  0.00000E+00  0.00000E+00
 ***** DATA CARD NO.  4   LD   1     5     0     0  1.00000E+12  0.00000E+00  0.00000E+00  0.00000E+00  0.00000E+00  0.00000E+00
 ***** DATA CARD NO.  5   EX   0   999     1     0  1.00000E+00  0.00000E+00  0.00000E+00  0.00000E+00  0.00000E+00  0.00000E+00
 ***** DATA CARD NO.  6   FR   0     1     0     0  1.44200E+02  0.00000E+00  0.00000E+00  0.00000E+00  0.00000E+00  0.00000E+00
 ***** DATA CARD NO.  7   RP   0     1     1  1000  8.50000E+01  9.00000E+01  0.00000E+00  0.00000E+00  0.00000E+00  0.00000E+00




                                 - - - - - - FREQUENCY - - - - - -

                                    FREQUENCY= 1.4420E+02 MHZ
                                    WAVELENGTH= 2.0791E+00 METERS




                    APPROXIMATE INTEGRATION EMPLOYED FOR SEGMENTS MORE THAN   1.000 WAVELENGTHS APART

                    THE EXTENDED THIN WIRE KERNEL WILL BE USED



                               - - - STRUCTURE IMPEDANCE LOADING - - -


       LOCATION          RESISTANCE   INDUCTANCE  CAPACITANCE       IMPEDANCE (OHMS)     CONDUCTIVITY    TYPE
    ITAG FROM THRU          OHMS        HENRYS       FARADS        REAL      IMAGINARY    MHOS/METER

     ALL                                                                                 5.8000E+07     WIRE  

       5                1.0000E+12                                                                    PARALLEL

          NOTE, SOME OF THE ABOVE SEGMENTS HAVE BEEN LOADED TWICE - IMPEDANCES ADDED



                                  - - - ANTENNA ENVIRONMENT - - -

                                        FINITE GROUND.  SOMMERFELD SOLUTION
                                        RELATIVE DIELECTRIC CONST.= 11.000
                                        CONDUCTIVITY= 1.000E-02 MHOS/METER
                                        COMPLEX DIELECTRIC CONSTANT= 1.10000E+01-1.24660E+00



                                - - - MATRIX TIMING - - -

                        FILL=    0.344 SEC.,  FACTOR=    0.047 SEC.



                                          - - - ANTENNA INPUT PARAMETERS - - -

   TAG   SEG.    VOLTAGE (VOLTS)         CURRENT (AMPS)         IMPEDANCE (OHMS)        ADMITTANCE (MHOS)      POWER
   NO.   NO.    REAL        IMAG.       REAL        IMAG.       REAL        IMAG.       REAL        IMAG.     (WATTS)
   999     3 1.00000E+00 0.00000E+00 1.62859E-02-9.77748E-03 4.51347E+01 2.70973E+01 1.62859E-02-9.77748E-03 8.14293E-03



                             - - - CURRENTS AND LOCATION - - -

                                 DISTANCES IN WAVELENGTHS


  SEG.  TAG    COORD. OF SEG. CENTER     SEG.            - - - CURRENT (AMPS) - - -
  NO.   NO.     X        Y        Z      LENGTH     REAL        IMAG.       MAG.        PHASE
     1    1  -0.0528   0.0000   3.9056  0.02525   1.5636E-02 -9.9410E-03  1.8529E-02  -32.447
     2    1  -0.0275   0.0000   3.9056  0.02525   1.6099E-02 -9.9678E-03  1.8935E-02  -31.764
     3  999  -0.0024   0.0000   3.9056  0.02501   1.6286E-02 -9.7775E-03  1.8995E-02  -30.979
     4    1   0.0239   0.0000   3.9056  0.02766   1.6148E-02 -1.0025E-02  1.9007E-02  -31.833
     5    1   0.0516   0.0000   3.9056  0.02766   1.5674E-02 -1.0020E-02  1.8603E-02  -32.590
     6    3  -0.0640  -0.1587   3.9204  0.02371   1.4832E-02 -2.4501E-02  2.8641E-02  -58.810
     7    3  -0.0640  -0.1587   3.9441  0.02371   1.3773E-02 -2.2747E-02  2.6592E-02  -58.806
     8    3  -0.0640  -0.1587   3.9678  0.02371   1.2420E-02 -2.0512E-02  2.3979E-02  -58.806
     9    3  -0.0640  -0.1587   3.9915  0.02371   1.0798E-02 -1.7837E-02  2.0850E-02  -58.811
    10    3  -0.0640  -0.1587   4.0152  0.02371   8.9409E-03 -1.4777E-02  1.7271E-02  -58.823
    11    3  -0.0640  -0.1587   4.0389  0.02371   6.8892E-03 -1.1396E-02  1.3317E-02  -58.846
    12    3  -0.0640  -0.1587   4.0626  0.02371   4.6868E-03 -7.7681E-03  9.0724E-03  -58.896
    13    3  -0.0640  -0.1587   4.0863  0.02371   2.3819E-03 -3.9714E-03  4.6310E-03  -59.046
    14    3  -0.0640  -0.1587   4.1100  0.02371   2.5101E-05 -8.9112E-05  9.2580E-05  -74.268
    15    3  -0.0640  -0.1587   4.1337  0.02371  -2.3318E-03  3.7940E-03  4.4532E-03  121.575
    16    3  -0.0640  -0.1587   4.1575  0.02371  -4.6368E-03  7.5928E-03  8.8966E-03  121.412
    17    3  -0.0640  -0.1587   4.1812  0.02371  -6.8393E-03  1.1224E-02  1.3144E-02  121.355
    18    3  -0.0640  -0.1587   4.2049  0.02371  -8.8909E-03  1.4609E-02  1.7102E-02  121.324
    19    3  -0.0640  -0.1587   4.2286  0.02371  -1.0747E-02  1.7675E-02  2.0686E-02  121.300
    20    3  -0.0640  -0.1587   4.2523  0.02371  -1.2367E-02  2.0356E-02  2.3819E-02  121.280
    21    3  -0.0640  -0.1587   4.2760  0.02371  -1.3718E-02  2.2598E-02  2.6436E-02  121.259
    22    3  -0.0640  -0.1587   4.2997  0.02371  -1.4772E-02  2.4357E-02  2.8486E-02  121.235
    23    3   0.0640  -0.1587   3.9204  0.02371  -1.4838E-02  2.4517E-02  2.8657E-02  121.182
    24    3   0.0640  -0.1587   3.9441  0.02371  -1.3780E-02  2.2768E-02  2.6613E-02  121.184
    25    3   0.0640  -0.1587   3.9678  0.02371  -1.2428E-02  2.0536E-02  2.4004E-02  121.180
    26    3   0.0640  -0.1587   3.9915  0.02371  -1.0807E-02  1.7864E-02  2.0879E-02  121.172
    27    3   0.0640  -0.1587   4.0152  0.02371  -8.9516E-03  1.4806E-02  1.7301E-02  121.157
    28    3   0.0640  -0.1587   4.0389  0.02371  -6.9009E-03  1.1426E-02  1.3349E-02  121.130
    29    3   0.0640  -0.1587   4.0626  0.02371  -4.6995E-03  7.7986E-03  9.1051E-03  121.073
    30    3   0.0640  -0.1587   4.0863  0.02371  -2.3953E-03  4.0014E-03  4.6636E-03  120.906
    31    3   0.0640  -0.1587   4.1100  0.02371  -3.9047E-05  1.1765E-04  1.2396E-04  108.360
    32    3   0.0640  -0.1587   4.1337  0.02371   2.3175E-03 -3.7676E-03  4.4233E-03  -58.404
    33    3   0.0640  -0.1587   4.1575  0.02371   4.6224E-03 -7.5694E-03  8.8692E-03  -58.589
    34    3   0.0640  -0.1587   4.1812  0.02371   6.8249E-03 -1.1204E-02  1.3119E-02  -58.653
    35    3   0.0640  -0.1587   4.2049  0.02371   8.8767E-03 -1.4594E-02  1.7081E-02  -58.690
    36    3   0.0640  -0.1587   4.2286  0.02371   1.0733E-02 -1.7664E-02  2.0669E-02  -58.716
    37    3   0.0640  -0.1587   4.2523  0.02371   1.2354E-02 -2.0351E-02  2.3807E-02  -58.740
    38    3   0.0640  -0.1587   4.2760  0.02371   1.3705E-02 -2.2597E-02  2.6429E-02  -58.763
    39    3   0.0640  -0.1587   4.2997  0.02371   1.4760E-02 -2.4362E-02  2.8485E-02  -58.789
    40    3  -0.0533  -0.1587   3.9085  0.02132  -1.5557E-02  2.5705E-02  3.0046E-02  121.183
    41    3  -0.0320  -0.1587   3.9085  0.02132  -1.6021E-02  2.6473E-02  3.0943E-02  121.182
    42    3  -0.0107  -0.1587   3.9085  0.02132  -1.6257E-02  2.6863E-02  3.1400E-02  121.182
    43    3   0.0107  -0.1587   3.9085  0.02132  -1.6258E-02  2.6866E-02  3.1402E-02  121.181
    44    3   0.0320  -0.1587   3.9085  0.02132  -1.6023E-02  2.6480E-02  3.0950E-02  121.178
    45    3   0.0533  -0.1587   3.9085  0.02132  -1.5561E-02  2.5717E-02  3.0058E-02  121.178
    46    3  -0.0533  -0.1587   4.3116  0.02132  -1.5490E-02  2.5566E-02  2.9892E-02  121.210
    47    3  -0.0320  -0.1587   4.3116  0.02132  -1.5948E-02  2.6335E-02  3.0788E-02  121.199
    48    3  -0.0107  -0.1587   4.3116  0.02132  -1.6182E-02  2.6724E-02  3.1242E-02  121.195
    49    3   0.0107  -0.1587   4.3116  0.02132  -1.6174E-02  2.6743E-02  3.1254E-02  121.165
    50    3   0.0320  -0.1587   4.3116  0.02132  -1.5939E-02  2.6350E-02  3.0796E-02  121.170
    51    3   0.0533  -0.1587   4.3116  0.02132  -1.5479E-02  2.5576E-02  2.9896E-02  121.184
    52    2  -0.0654   0.0000   3.8575  0.01924  -6.6582E-03  1.3235E-03  6.7884E-03  168.757
    53    2  -0.0654   0.0000   3.8768  0.01924  -6.1923E-03  1.1186E-03  6.2925E-03  169.761
    54    2  -0.0654   0.0000   3.8960  0.01924  -5.6779E-03  9.0335E-04  5.7493E-03  170.960
    55    2   0.0654   0.0000   3.8575  0.01924   6.6441E-03 -1.3088E-03  6.7718E-03  -11.144
    56    2   0.0654   0.0000   3.8768  0.01924   6.1749E-03 -1.1011E-03  6.2723E-03  -10.111
    57    2   0.0654   0.0000   3.8960  0.01924   5.6570E-03 -8.8286E-04  5.7255E-03   -8.870
    58    2  -0.0545   0.0000   3.8479  0.02180   7.0637E-03 -1.5153E-03  7.2244E-03  -12.108
    59    2  -0.0327   0.0000   3.8479  0.02180   7.3561E-03 -1.6560E-03  7.5402E-03  -12.687
    60    2  -0.0109   0.0000   3.8479  0.02180   7.5009E-03 -1.7262E-03  7.6970E-03  -12.960
    61    2   0.0109   0.0000   3.8479  0.02180   7.4988E-03 -1.7233E-03  7.6942E-03  -12.943
    62    2   0.0327   0.0000   3.8479  0.02180   7.3496E-03 -1.6479E-03  7.5321E-03  -12.638
    63    2   0.0545   0.0000   3.8479  0.02180   7.0532E-03 -1.5032E-03  7.2116E-03  -12.031
    64    2  -0.0545   0.0000   4.3145  0.02180   2.1098E-02 -1.0542E-02  2.3585E-02  -26.550
    65    2  -0.0327   0.0000   4.3145  0.02180   2.1794E-02 -1.0939E-02  2.4385E-02  -26.654
    66    2  -0.0109   0.0000   4.3145  0.02180   2.2147E-02 -1.1141E-02  2.4792E-02  -26.704
    67    2  -0.0654   0.0000   3.9176  0.02405  -2.0442E-02  1.0499E-02  2.2981E-02  152.814
    68    2  -0.0654   0.0000   3.9417  0.02405  -1.9244E-02  9.9719E-03  2.1674E-02  152.607
    69    2  -0.0654   0.0000   3.9657  0.02405  -1.7564E-02  9.2030E-03  1.9829E-02  152.347
    70    2  -0.0654   0.0000   3.9898  0.02405  -1.5475E-02  8.2193E-03  1.7522E-02  152.026
    71    2  -0.0654   0.0000   4.0138  0.02405  -1.3029E-02  7.0438E-03  1.4811E-02  151.604
    72    2  -0.0654   0.0000   4.0379  0.02405  -1.0284E-02  5.7042E-03  1.1760E-02  150.985
    73    2  -0.0654   0.0000   4.0619  0.02405  -7.3039E-03  4.2314E-03  8.4411E-03  149.915
    74    2  -0.0654   0.0000   4.0860  0.02405  -4.1558E-03  2.6596E-03  4.9340E-03  147.382
    75    2  -0.0654   0.0000   4.1100  0.02405  -9.1186E-04  1.0250E-03  1.3719E-03  131.657
    76    2  -0.0654   0.0000   4.1341  0.02405   2.3541E-03 -6.3484E-04  2.4382E-03  -15.092
    77    2  -0.0654   0.0000   4.1581  0.02405   5.5681E-03 -2.2818E-03  6.0175E-03  -22.284
    78    2  -0.0654   0.0000   4.1822  0.02405   8.6574E-03 -3.8782E-03  9.4863E-03  -24.130
    79    2  -0.0654   0.0000   4.2062  0.02405   1.1553E-02 -5.3876E-03  1.2747E-02  -25.002
    80    2  -0.0654   0.0000   4.2303  0.02405   1.4189E-02 -6.7758E-03  1.5724E-02  -25.526
    81    2  -0.0654   0.0000   4.2543  0.02405   1.6509E-02 -8.0119E-03  1.8351E-02  -25.887
    82    2  -0.0654   0.0000   4.2784  0.02405   1.8464E-02 -9.0688E-03  2.0571E-02  -26.159
    83    2  -0.0654   0.0000   4.3024  0.02405   2.0013E-02 -9.9252E-03  2.2339E-02  -26.378
    84    2   0.0654   0.0000   3.9176  0.02405   2.0430E-02 -1.0547E-02  2.2992E-02  -27.306
    85    2   0.0654   0.0000   3.9417  0.02405   1.9229E-02 -1.0016E-02  2.1681E-02  -27.514
    86    2   0.0654   0.0000   3.9657  0.02405   1.7546E-02 -9.2429E-03  1.9832E-02  -27.779
    87    2   0.0654   0.0000   3.9898  0.02405   1.5455E-02 -8.2550E-03  1.7522E-02  -28.108
    88    2   0.0654   0.0000   4.0138  0.02405   1.3008E-02 -7.0756E-03  1.4807E-02  -28.544
    89    2   0.0654   0.0000   4.0379  0.02405   1.0261E-02 -5.7318E-03  1.1754E-02  -29.187
    90    2   0.0654   0.0000   4.0619  0.02405   7.2801E-03 -4.2547E-03  8.4323E-03  -30.303
    91    2   0.0654   0.0000   4.0860  0.02405   4.1318E-03 -2.6785E-03  4.9240E-03  -32.954
    92    2   0.0654   0.0000   4.1100  0.02405   8.8811E-04 -1.0392E-03  1.3670E-03  -49.484
    93    2   0.0654   0.0000   4.1341  0.02405  -2.3772E-03  6.2528E-04  2.4580E-03  165.263
    94    2   0.0654   0.0000   4.1581  0.02405  -5.5900E-03  2.2769E-03  6.0359E-03  157.838
    95    2   0.0654   0.0000   4.1822  0.02405  -8.6777E-03  3.8780E-03  9.5048E-03  155.921
    96    2   0.0654   0.0000   4.2062  0.02405  -1.1571E-02  5.3919E-03  1.2766E-02  155.015
    97    2   0.0654   0.0000   4.2303  0.02405  -1.4205E-02  6.7843E-03  1.5742E-02  154.471
    98    2   0.0654   0.0000   4.2543  0.02405  -1.6523E-02  8.0243E-03  1.8368E-02  154.096
    99    2   0.0654   0.0000   4.2784  0.02405  -1.8474E-02  9.0848E-03  2.0587E-02  153.814
   100    2   0.0654   0.0000   4.3024  0.02405  -2.0021E-02  9.9442E-03  2.2355E-02  153.587
   101    2   0.0109   0.0000   4.3145  0.02180   2.2147E-02 -1.1166E-02  2.4802E-02  -26.756
   102    2   0.0327   0.0000   4.3145  0.02180   2.1796E-02 -1.0963E-02  2.4397E-02  -26.701
   103    2   0.0545   0.0000   4.3145  0.02180   2.1103E-02 -1.0563E-02  2.3599E-02  -26.591
   104    4   0.0000  -0.0113   4.3143  0.02268   2.0533E-06  2.5429E-05  2.5512E-05   85.384
   105    4   0.0000  -0.0340   4.3138  0.02268   3.0605E-06  2.5519E-05  2.5702E-05   83.161
   106    4   0.0000  -0.0567   4.3134  0.02268   4.1055E-06  2.5277E-05  2.5608E-05   80.775
   107    4   0.0000  -0.0794   4.3130  0.02268   5.1098E-06  2.4695E-05  2.5218E-05   78.310
   108    4   0.0000  -0.1020   4.3126  0.02268   6.0306E-06  2.3796E-05  2.4548E-05   75.779
   109    4   0.0000  -0.1247   4.3122  0.02268   6.8304E-06  2.2622E-05  2.3630E-05   73.199
   110    4   0.0000  -0.1474   4.3118  0.02268   7.4595E-06  2.1281E-05  2.2551E-05   70.683
   111    5   0.4810  -0.1924   3.8599  0.02405  -3.6208E-15  7.6495E-15  8.4632E-15  115.330
   112    5   0.4810  -0.1924   3.8840  0.02405  -3.8387E-15  7.4094E-15  8.3447E-15  117.388
   113    5   0.4810  -0.1924   3.9080  0.02405  -3.9687E-15  7.1252E-15  8.1560E-15  119.118
   114    5   0.4810  -0.1924   3.9321  0.02405  -4.0093E-15  6.8011E-15  7.8949E-15  120.520
   115    5   0.4810  -0.1924   3.9561  0.02405  -3.9616E-15  6.4410E-15  7.5618E-15  121.594
   116    5   0.4810  -0.1924   3.9802  0.02405  -3.8295E-15  6.0485E-15  7.1589E-15  122.339
   117    5   0.4810  -0.1924   4.0042  0.02405  -3.6194E-15  5.6272E-15  6.6907E-15  122.749
   118    5   0.4810  -0.1924   4.0283  0.02405  -3.3399E-15  5.1804E-15  6.1637E-15  122.811
   119    5   0.4810  -0.1924   4.0523  0.02405  -3.0013E-15  4.7113E-15  5.5861E-15  122.498
   120    5   0.4810  -0.1924   4.0764  0.02405  -2.6150E-15  4.2235E-15  4.9675E-15  121.764
   121    5   0.4810  -0.1443   3.8599  0.02405  -3.4605E-15  7.9735E-15  8.6921E-15  113.461
   122    5   0.4810  -0.1443   3.8840  0.02405  -3.7247E-15  7.7240E-15  8.5752E-15  115.745
   123    5   0.4810  -0.1443   3.9080  0.02405  -3.9055E-15  7.4251E-15  8.3896E-15  117.743
   124    5   0.4810  -0.1443   3.9321  0.02405  -4.0005E-15  7.0813E-15  8.1332E-15  119.464
   125    5   0.4810  -0.1443   3.9561  0.02405  -4.0106E-15  6.6970E-15  7.8060E-15  120.916
   126    5   0.4810  -0.1443   3.9802  0.02405  -3.9392E-15  6.2762E-15  7.4099E-15  122.114
   127    5   0.4810  -0.1443   4.0042  0.02405  -3.7921E-15  5.8229E-15  6.9488E-15  123.074
   128    5   0.4810  -0.1443   4.0283  0.02405  -3.5774E-15  5.3411E-15  6.4284E-15  123.813
   129    5   0.4810  -0.1443   4.0523  0.02405  -3.3046E-15  4.8346E-15  5.8561E-15  124.353
   130    5   0.4810  -0.1443   4.0764  0.02405  -2.9845E-15  4.3077E-15  5.2406E-15  124.716
   131    5   0.4810  -0.0962   3.8599  0.02405  -3.0132E-15  8.2428E-15  8.7763E-15  110.080
   132    5   0.4810  -0.0962   3.8840  0.02405  -3.3253E-15  7.9906E-15  8.6549E-15  112.595
   133    5   0.4810  -0.0962   3.9080  0.02405  -3.5624E-15  7.6829E-15  8.4687E-15  114.876
   134    5   0.4810  -0.0962   3.9321  0.02405  -3.7219E-15  7.3245E-15  8.2159E-15  116.937
   135    5   0.4810  -0.0962   3.9561  0.02405  -3.8040E-15  6.9200E-15  7.8966E-15  118.798
   136    5   0.4810  -0.0962   3.9802  0.02405  -3.8111E-15  6.4741E-15  7.5125E-15  120.484
   137    5   0.4810  -0.0962   4.0042  0.02405  -3.7483E-15  5.9913E-15  7.0672E-15  122.032
   138    5   0.4810  -0.0962   4.0283  0.02405  -3.6225E-15  5.4763E-15  6.5660E-15  123.485
   139    5   0.4810  -0.0962   4.0523  0.02405  -3.4421E-15  4.9337E-15  6.0157E-15  124.902
   140    5   0.4810  -0.0962   4.0764  0.02405  -3.2166E-15  4.3684E-15  5.4249E-15  126.365
   141    5   0.4810  -0.0481   3.8599  0.02405  -2.3187E-15  8.4199E-15  8.7333E-15  105.397
   142    5   0.4810  -0.0481   3.8840  0.02405  -2.6772E-15  8.1740E-15  8.6012E-15  108.135
   143    5   0.4810  -0.0481   3.9080  0.02405  -2.9724E-15  7.8667E-15  8.4095E-15  110.699
   144    5   0.4810  -0.0481   3.9321  0.02405  -3.2014E-15  7.5026E-15  8.1571E-15  113.108
   145    5   0.4810  -0.0481   3.9561  0.02405  -3.3636E-15  7.0868E-15  7.8445E-15  115.390
   146    5   0.4810  -0.0481   3.9802  0.02405  -3.4606E-15  6.6244E-15  7.4739E-15  117.583
   147    5   0.4810  -0.0481   4.0042  0.02405  -3.4961E-15  6.1206E-15  7.0488E-15  119.735
   148    5   0.4810  -0.0481   4.0283  0.02405  -3.4756E-15  5.5807E-15  6.5745E-15  121.914
   149    5   0.4810  -0.0481   4.0523  0.02405  -3.4058E-15  5.0102E-15  6.0581E-15  124.207
   150    5   0.4810  -0.0481   4.0764  0.02405  -3.2946E-15  4.4147E-15  5.5086E-15  126.733
   151    5   0.4810   0.0000   3.8599  0.02405  -1.4446E-15  8.4622E-15  8.5846E-15   99.688
   152    5   0.4810   0.0000   3.8840  0.02405  -1.8444E-15  8.2334E-15  8.4375E-15  102.626
   153    5   0.4810   0.0000   3.9080  0.02405  -2.1946E-15  7.9382E-15  8.2360E-15  105.454
   154    5   0.4810   0.0000   3.9321  0.02405  -2.4921E-15  7.5813E-15  7.9804E-15  108.197
   155    5   0.4810   0.0000   3.9561  0.02405  -2.7355E-15  7.1677E-15  7.6720E-15  110.889
   156    5   0.4810   0.0000   3.9802  0.02405  -2.9253E-15  6.7030E-15  7.3135E-15  113.577
   157    5   0.4810   0.0000   4.0042  0.02405  -3.0638E-15  6.1928E-15  6.9092E-15  116.323
   158    5   0.4810   0.0000   4.0283  0.02405  -3.1546E-15  5.6430E-15  6.4649E-15  119.207
   159    5   0.4810   0.0000   4.0523  0.02405  -3.2029E-15  5.0598E-15  5.9884E-15  122.334
   160    5   0.4810   0.0000   4.0764  0.02405  -3.2145E-15  4.4498E-15  5.4894E-15  125.844
   161    5   0.4810   0.0481   3.8599  0.02405  -4.7015E-16  8.3345E-15  8.3478E-15   93.229
   162    5   0.4810   0.0481   3.8840  0.02405  -9.0321E-16  8.1342E-15  8.1842E-15   96.336
   163    5   0.4810   0.0481   3.9080  0.02405  -1.3011E-15  7.8644E-15  7.9713E-15   99.394
   164    5   0.4810   0.0481   3.9321  0.02405  -1.6602E-15  7.5297E-15  7.7105E-15  102.434
   165    5   0.4810   0.0481   3.9561  0.02405  -1.9785E-15  7.1349E-15  7.4042E-15  105.499
   166    5   0.4810   0.0481   3.9802  0.02405  -2.2555E-15  6.6858E-15  7.0560E-15  108.642
   167    5   0.4810   0.0481   4.0042  0.02405  -2.4919E-15  6.1883E-15  6.6712E-15  111.934
   168    5   0.4810   0.0481   4.0283  0.02405  -2.6900E-15  5.6487E-15  6.2565E-15  115.464
   169    5   0.4810   0.0481   4.0523  0.02405  -2.8527E-15  5.0737E-15  5.8206E-15  119.347
   170    5   0.4810   0.0481   4.0764  0.02405  -2.9839E-15  4.4703E-15  5.3747E-15  123.723
   171    5   0.4810   0.0962   3.8599  0.02405   5.2787E-16  8.0180E-15  8.0354E-15   86.233
   172    5   0.4810   0.0962   3.8840  0.02405   7.2024E-17  7.8568E-15  7.8571E-15   89.475
   173    5   0.4810   0.0962   3.9080  0.02405  -3.6230E-16  7.6255E-15  7.6341E-15   92.720
   174    5   0.4810   0.0962   3.9321  0.02405  -7.7134E-16  7.3282E-15  7.3687E-15   96.009
   175    5   0.4810   0.0962   3.9561  0.02405  -1.1525E-15  6.9697E-15  7.0643E-15   99.389
   176    5   0.4810   0.0962   3.9802  0.02405  -1.5041E-15  6.5554E-15  6.7257E-15  102.923
   177    5   0.4810   0.0962   4.0042  0.02405  -1.8259E-15  6.0913E-15  6.3590E-15  106.686
   178    5   0.4810   0.0962   4.0283  0.02405  -2.1182E-15  5.5838E-15  5.9720E-15  110.774
   179    5   0.4810   0.0962   4.0523  0.02405  -2.3825E-15  5.0398E-15  5.5746E-15  115.301
   180    5   0.4810   0.0962   4.0764  0.02405  -2.6206E-15  4.4668E-15  5.1788E-15  120.400
   181    5   0.4810   0.1443   3.8599  0.02405   1.4843E-15  7.5137E-15  7.6589E-15   78.825
   182    5   0.4810   0.1443   3.8840  0.02405   1.0178E-15  7.4002E-15  7.4699E-15   82.169
   183    5   0.4810   0.1443   3.9080  0.02405   5.6060E-16  7.2185E-15  7.2403E-15   85.559
   184    5   0.4810   0.1443   3.9321  0.02405   1.1652E-16  6.9722E-15  6.9731E-15   89.043
   185    5   0.4810   0.1443   3.9561  0.02405  -3.1127E-16  6.6654E-15  6.6727E-15   92.674
   186    5   0.4810   0.1443   3.9802  0.02405  -7.2045E-16  6.3035E-15  6.3445E-15   96.520
   187    5   0.4810   0.1443   4.0042  0.02405  -1.1095E-15  5.8919E-15  5.9955E-15  100.664
   188    5   0.4810   0.1443   4.0283  0.02405  -1.4775E-15  5.4372E-15  5.6344E-15  105.202
   189    5   0.4810   0.1443   4.0523  0.02405  -1.8243E-15  4.9461E-15  5.2718E-15  110.245
   190    5   0.4810   0.1443   4.0764  0.02405  -2.1501E-15  4.4259E-15  4.9206E-15  115.911
   191    5   0.4810   0.1924   3.8599  0.02405   2.3489E-15  6.8398E-15  7.2319E-15   71.047
   192    5   0.4810   0.1924   3.8840  0.02405   1.8846E-15  6.7799E-15  7.0369E-15   74.465
   193    5   0.4810   0.1924   3.9080  0.02405   1.4192E-15  6.6557E-15  6.8054E-15   77.963
   194    5   0.4810   0.1924   3.9321  0.02405   9.5650E-16  6.4703E-15  6.5406E-15   81.591
   195    5   0.4810   0.1924   3.9561  0.02405   5.0007E-16  6.2273E-15  6.2474E-15   85.409
   196    5   0.4810   0.1924   3.9802  0.02405   5.2823E-17  5.9314E-15  5.9317E-15   89.490
   197    5   0.4810   0.1924   4.0042  0.02405  -3.8281E-16  5.5878E-15  5.6009E-15   93.919
   198    5   0.4810   0.1924   4.0283  0.02405  -8.0493E-16  5.2025E-15  5.2644E-15   98.795
   199    5   0.4810   0.1924   4.0523  0.02405  -1.2121E-15  4.7819E-15  4.9331E-15  104.223
   200    5   0.4810   0.1924   4.0764  0.02405  -1.6031E-15  4.3329E-15  4.6199E-15  110.303
   201    5   0.4810   0.2405   3.8599  0.02405   3.0852E-15  6.0269E-15  6.7707E-15   62.892
   202    5   0.4810   0.2405   3.8840  0.02405   2.6360E-15  6.0229E-15  6.5745E-15   66.362
   203    5   0.4810   0.2405   3.9080  0.02405   2.1771E-15  5.9604E-15  6.3455E-15   69.935
   204    5   0.4810   0.2405   3.9321  0.02405   1.7123E-15  5.8416E-15  6.0874E-15   73.663
   205    5   0.4810   0.2405   3.9561  0.02405   1.2455E-15  5.6697E-15  5.8049E-15   77.610
   206    5   0.4810   0.2405   3.9802  0.02405   7.7998E-16  5.4486E-15  5.5041E-15   81.853
   207    5   0.4810   0.2405   4.0042  0.02405   3.1881E-16  5.1829E-15  5.1927E-15   86.480
   208    5   0.4810   0.2405   4.0283  0.02405  -1.3528E-16  4.8781E-15  4.8800E-15   91.589
   209    5   0.4810   0.2405   4.0523  0.02405  -5.7988E-16  4.5399E-15  4.5768E-15   97.279
   210    5   0.4810   0.2405   4.0764  0.02405  -1.0128E-15  4.1747E-15  4.2958E-15  103.637
   211    5   0.4810  -0.2285   3.8479  0.02405   9.7767E-15  3.7540E-16  9.7840E-15    2.199
   212    5   0.4810  -0.2044   3.8479  0.02405   1.1141E-14 -2.1661E-16  1.1143E-14   -1.114
   213    5   0.4810  -0.1804   3.8479  0.02405   1.2372E-14 -9.1839E-16  1.2406E-14   -4.245
   214    5   0.4810  -0.1563   3.8479  0.02405   1.3410E-14 -1.7502E-15  1.3523E-14   -7.436
   215    5   0.4810  -0.1323   3.8479  0.02405   1.4197E-14 -2.7267E-15  1.4457E-14  -10.872
   216    5   0.4810  -0.1082   3.8479  0.02405   1.4684E-14 -3.8541E-15  1.5182E-14  -14.706
   217    5   0.4810  -0.0842   3.8479  0.02405   1.4832E-14 -5.1278E-15  1.5693E-14  -19.072
   218    5   0.4810  -0.0601   3.8479  0.02405   1.4612E-14 -6.5312E-15  1.6005E-14  -24.083
   219    5   0.4810  -0.0361   3.8479  0.02405   1.4015E-14 -8.0354E-15  1.6155E-14  -29.828
   220    5   0.4810  -0.0120   3.8479  0.02405   1.3044E-14 -9.6002E-15  1.6196E-14  -36.352
   221    5   0.4810   0.0120   3.8479  0.02405   1.1719E-14 -1.1176E-14  1.6194E-14  -43.644
   222    5   0.4810   0.0361   3.8479  0.02405   1.0071E-14 -1.2709E-14  1.6216E-14  -51.607
   223    5   0.4810   0.0601   3.8479  0.02405   8.1426E-15 -1.4142E-14  1.6318E-14  -60.067
   224    5   0.4810   0.0842   3.8479  0.02405   5.9846E-15 -1.5419E-14  1.6539E-14  -68.787
   225    5   0.4810   0.1082   3.8479  0.02405   3.6515E-15 -1.6490E-14  1.6889E-14  -77.514
   226    5   0.4810   0.1323   3.8479  0.02405   1.1999E-15 -1.7313E-14  1.7354E-14  -86.035
   227    5   0.4810   0.1563   3.8479  0.02405  -1.3138E-15 -1.7855E-14  1.7903E-14  -94.208
   228    5   0.4810   0.1804   3.8479  0.02405  -3.8352E-15 -1.8094E-14  1.8496E-14 -101.967
   229    5   0.4810   0.2044   3.8479  0.02405  -6.3135E-15 -1.8019E-14  1.9093E-14 -109.309
   230    5   0.4810   0.2285   3.8479  0.02405  -8.7019E-15 -1.7628E-14  1.9659E-14 -116.272
   231    5   0.4810  -0.2285   3.8960  0.02405   1.0618E-14  1.2811E-15  1.0695E-14    6.880
   232    5   0.4810  -0.2044   3.8960  0.02405   1.2274E-14  7.2946E-16  1.2296E-14    3.401
   233    5   0.4810  -0.1804   3.8960  0.02405   1.3791E-14  4.6942E-17  1.3792E-14    0.195
   234    5   0.4810  -0.1563   3.8960  0.02405   1.5099E-14 -7.9430E-16  1.5120E-14   -3.011
   235    5   0.4810  -0.1323   3.8960  0.02405   1.6127E-14 -1.8156E-15  1.6229E-14   -6.423
   236    5   0.4810  -0.1082   3.8960  0.02405   1.6815E-14 -3.0281E-15  1.7086E-14  -10.209
   237    5   0.4810  -0.0842   3.8960  0.02405   1.7114E-14 -4.4300E-15  1.7678E-14  -14.513
   238    5   0.4810  -0.0601   3.8960  0.02405   1.6991E-14 -6.0041E-15  1.8021E-14  -19.462
   239    5   0.4810  -0.0361   3.8960  0.02405   1.6432E-14 -7.7181E-15  1.8155E-14  -25.159
   240    5   0.4810  -0.0120   3.8960  0.02405   1.5442E-14 -9.5252E-15  1.8144E-14  -31.667
   241    5   0.4810   0.0120   3.8960  0.02405   1.4043E-14 -1.1367E-14  1.8067E-14  -38.989
   242    5   0.4810   0.0361   3.8960  0.02405   1.2272E-14 -1.3179E-14  1.8009E-14  -47.041
   243    5   0.4810   0.0601   3.8960  0.02405   1.0180E-14 -1.4893E-14  1.8040E-14  -55.645
   244    5   0.4810   0.0842   3.8960  0.02405   7.8250E-15 -1.6442E-14  1.8209E-14  -64.550
   245    5   0.4810   0.1082   3.8960  0.02405   5.2697E-15 -1.7768E-14  1.8533E-14  -73.480
   246    5   0.4810   0.1323   3.8960  0.02405   2.5791E-15 -1.8819E-14  1.8995E-14  -82.196
   247    5   0.4810   0.1563   3.8960  0.02405  -1.8321E-16 -1.9557E-14  1.9558E-14  -90.537
   248    5   0.4810   0.1804   3.8960  0.02405  -2.9566E-15 -1.9957E-14  2.0175E-14  -98.427
   249    5   0.4810   0.2044   3.8960  0.02405  -5.6850E-15 -2.0005E-14  2.0797E-14 -105.864
   250    5   0.4810   0.2285   3.8960  0.02405  -8.3173E-15 -1.9700E-14  2.1384E-14 -112.890
   251    5   0.4810  -0.2285   3.9441  0.02405   1.1316E-14  2.1192E-15  1.1513E-14   10.607
   252    5   0.4810  -0.2044   3.9441  0.02405   1.3245E-14  1.6183E-15  1.3343E-14    6.966
   253    5   0.4810  -0.1804   3.9441  0.02405   1.5031E-14  9.6754E-16  1.5063E-14    3.683
   254    5   0.4810  -0.1563   3.9441  0.02405   1.6593E-14  1.3156E-16  1.6594E-14    0.454
   255    5   0.4810  -0.1323   3.9441  0.02405   1.7850E-14 -9.1781E-16  1.7873E-14   -2.944
   256    5   0.4810  -0.1082   3.9441  0.02405   1.8728E-14 -2.1970E-15  1.8857E-14   -6.691
   257    5   0.4810  -0.0842   3.9441  0.02405   1.9172E-14 -3.7068E-15  1.9527E-14  -10.943
   258    5   0.4810  -0.0601   3.9441  0.02405   1.9142E-14 -5.4302E-15  1.9898E-14  -15.837
   259    5   0.4810  -0.0361   3.9441  0.02405   1.8622E-14 -7.3314E-15  2.0013E-14  -21.490
   260    5   0.4810  -0.0120   3.9441  0.02405   1.7616E-14 -9.3576E-15  1.9947E-14  -27.977
   261    5   0.4810   0.0120   3.9441  0.02405   1.6150E-14 -1.1442E-14  1.9793E-14  -35.316
   262    5   0.4810   0.0361   3.9441  0.02405   1.4269E-14 -1.3510E-14  1.9649E-14  -43.435
   263    5   0.4810   0.0601   3.9441  0.02405   1.2027E-14 -1.5481E-14  1.9604E-14  -52.156
   264    5   0.4810   0.0842   3.9441  0.02405   9.4936E-15 -1.7281E-14  1.9717E-14  -61.217
   265    5   0.4810   0.1082   3.9441  0.02405   6.7383E-15 -1.8840E-14  2.0008E-14  -70.320
   266    5   0.4810   0.1323   3.9441  0.02405   3.8336E-15 -2.0100E-14  2.0462E-14  -79.202
   267    5   0.4810   0.1563   3.9441  0.02405   8.5007E-16 -2.1018E-14  2.1036E-14  -87.684
   268    5   0.4810   0.1804   3.9441  0.02405  -2.1462E-15 -2.1565E-14  2.1671E-14  -95.683
   269    5   0.4810   0.2044   3.9441  0.02405  -5.0943E-15 -2.1725E-14  2.2314E-14 -103.197
   270    5   0.4810   0.2285   3.9441  0.02405  -7.9399E-15 -2.1498E-14  2.2917E-14 -110.271
   271    5   0.4810  -0.2285   3.9922  0.02405   1.1857E-14  2.8175E-15  1.2187E-14   13.367
   272    5   0.4810  -0.2044   3.9922  0.02405   1.4016E-14  2.3678E-15  1.4215E-14    9.589
   273    5   0.4810  -0.1804   3.9922  0.02405   1.6031E-14  1.7528E-15  1.6127E-14    6.240
   274    5   0.4810  -0.1563   3.9922  0.02405   1.7810E-14  9.3033E-16  1.7834E-14    2.990
   275    5   0.4810  -0.1323   3.9922  0.02405   1.9260E-14 -1.3391E-16  1.9261E-14   -0.398
   276    5   0.4810  -0.1082   3.9922  0.02405   2.0302E-14 -1.4611E-15  2.0354E-14   -4.116
   277    5   0.4810  -0.0842   3.9922  0.02405   2.0869E-14 -3.0547E-15  2.1091E-14   -8.327
   278    5   0.4810  -0.0601   3.9922  0.02405   2.0918E-14 -4.8977E-15  2.1484E-14  -13.177
   279    5   0.4810  -0.0361   3.9922  0.02405   2.0431E-14 -6.9516E-15  2.1581E-14  -18.791
   280    5   0.4810  -0.0120   3.9922  0.02405   1.9412E-14 -9.1582E-15  2.1464E-14  -25.257
   281    5   0.4810   0.0120   3.9922  0.02405   1.7890E-14 -1.1444E-14  2.1237E-14  -32.606
   282    5   0.4810   0.0361   3.9922  0.02405   1.5915E-14 -1.3724E-14  2.1015E-14  -40.772
   283    5   0.4810   0.0601   3.9922  0.02405   1.3549E-14 -1.5910E-14  2.0898E-14  -49.583
   284    5   0.4810   0.0842   3.9922  0.02405   1.0867E-14 -1.7919E-14  2.0956E-14  -58.765
   285    5   0.4810   0.1082   3.9922  0.02405   7.9458E-15 -1.9672E-14  2.1216E-14  -68.005
   286    5   0.4810   0.1323   3.9922  0.02405   4.8652E-15 -2.1106E-14  2.1660E-14  -77.019
   287    5   0.4810   0.1563   3.9922  0.02405   1.7009E-15 -2.2173E-14  2.2238E-14  -85.614
   288    5   0.4810   0.1804   3.9922  0.02405  -1.4763E-15 -2.2841E-14  2.2889E-14  -93.698
   289    5   0.4810   0.2044   3.9922  0.02405  -4.6019E-15 -2.3094E-14  2.3548E-14 -101.269
   290    5   0.4810   0.2285   3.9922  0.02405  -7.6185E-15 -2.2931E-14  2.4163E-14 -108.379
   291    5   0.4810  -0.2285   4.0403  0.02405   1.2231E-14  3.3113E-15  1.2671E-14   15.149
   292    5   0.4810  -0.2044   4.0403  0.02405   1.4557E-14  2.9031E-15  1.4844E-14   11.279
   293    5   0.4810  -0.1804   4.0403  0.02405   1.6738E-14  2.3187E-15  1.6898E-14    7.887
   294    5   0.4810  -0.1563   4.0403  0.02405   1.8674E-14  1.5110E-15  1.8735E-14    4.626
   295    5   0.4810  -0.1323   4.0403  0.02405   2.0265E-14  4.4086E-16  2.0270E-14    1.246
   296    5   0.4810  -0.1082   4.0403  0.02405   2.1424E-14 -9.1634E-16  2.1443E-14   -2.449
   297    5   0.4810  -0.0842   4.0403  0.02405   2.2080E-14 -2.5662E-15  2.2228E-14   -6.629
   298    5   0.4810  -0.0601   4.0403  0.02405   2.2186E-14 -4.4919E-15  2.2636E-14  -11.446
   299    5   0.4810  -0.0361   4.0403  0.02405   2.1720E-14 -6.6529E-15  2.2716E-14  -17.030
   300    5   0.4810  -0.0120   4.0403  0.02405   2.0690E-14 -8.9872E-15  2.2557E-14  -23.479
   301    5   0.4810   0.0120   4.0403  0.02405   1.9126E-14 -1.1415E-14  2.2274E-14  -30.831
   302    5   0.4810   0.0361   4.0403  0.02405   1.7082E-14 -1.3847E-14  2.1989E-14  -39.029
   303    5   0.4810   0.0601   4.0403  0.02405   1.4625E-14 -1.6187E-14  2.1815E-14  -47.902
   304    5   0.4810   0.0842   4.0403  0.02405   1.1835E-14 -1.8344E-14  2.1830E-14  -57.170
   305    5   0.4810   0.1082   4.0403  0.02405   8.7953E-15 -2.0235E-14  2.2064E-14  -66.508
   306    5   0.4810   0.1323   4.0403  0.02405   5.5891E-15 -2.1793E-14  2.2498E-14  -75.616
   307    5   0.4810   0.1563   4.0403  0.02405   2.2966E-15 -2.2966E-14  2.3080E-14  -84.289
   308    5   0.4810   0.1804   4.0403  0.02405  -1.0079E-15 -2.3719E-14  2.3741E-14  -92.433
   309    5   0.4810   0.2044   4.0403  0.02405  -4.2576E-15 -2.4037E-14  2.4411E-14 -100.044
   310    5   0.4810   0.2285   4.0403  0.02405  -7.3933E-15 -2.3919E-14  2.5036E-14 -107.176
   311    5   0.4810  -0.2285   4.0884  0.02405   1.2431E-14  3.5514E-15  1.2928E-14   15.944
   312    5   0.4810  -0.2044   4.0884  0.02405   1.4843E-14  3.1666E-15  1.5177E-14   12.043
   313    5   0.4810  -0.1804   4.0884  0.02405   1.7111E-14  2.6003E-15  1.7307E-14    8.641
   314    5   0.4810  -0.1563   4.0884  0.02405   1.9127E-14  1.8025E-15  1.9212E-14    5.384
   315    5   0.4810  -0.1323   4.0884  0.02405   2.0790E-14  7.3193E-16  2.0803E-14    2.016
   316    5   0.4810  -0.1082   4.0884  0.02405   2.2008E-14 -6.3825E-16  2.2017E-14   -1.661
   317    5   0.4810  -0.0842   4.0884  0.02405   2.2708E-14 -2.3147E-15  2.2826E-14   -5.820
   318    5   0.4810  -0.0601   4.0884  0.02405   2.2840E-14 -4.2806E-15  2.3238E-14  -10.615
   319    5   0.4810  -0.0361   4.0884  0.02405   2.2384E-14 -6.4946E-15  2.3307E-14  -16.180
   320    5   0.4810  -0.0120   4.0884  0.02405   2.1345E-14 -8.8926E-15  2.3123E-14  -22.618
   321    5   0.4810   0.0120   4.0884  0.02405   1.9756E-14 -1.1392E-14  2.2805E-14  -29.970
   322    5   0.4810   0.0361   4.0884  0.02405   1.7673E-14 -1.3900E-14  2.2484E-14  -38.185
   323    5   0.4810   0.0601   4.0884  0.02405   1.5167E-14 -1.6317E-14  2.2277E-14  -47.092
   324    5   0.4810   0.0842   4.0884  0.02405   1.2319E-14 -1.8548E-14  2.2266E-14  -56.409
   325    5   0.4810   0.1082   4.0884  0.02405   9.2164E-15 -2.0509E-14  2.2484E-14  -65.801
   326    5   0.4810   0.1323   4.0884  0.02405   5.9447E-15 -2.2128E-14  2.2913E-14  -74.963
   327    5   0.4810   0.1563   4.0884  0.02405   2.5861E-15 -2.3353E-14  2.3496E-14  -83.681
   328    5   0.4810   0.1804   4.0884  0.02405  -7.8350E-16 -2.4149E-14  2.4162E-14  -91.858
   329    5   0.4810   0.2044   4.0884  0.02405  -4.0959E-15 -2.4499E-14  2.4839E-14  -99.491
   330    5   0.4810   0.2285   4.0884  0.02405  -7.2911E-15 -2.4403E-14  2.5469E-14 -106.635



                                        - - - POWER BUDGET - - -

                                           INPUT POWER   = 8.1429E-03 WATTS
                                           RADIATED POWER= 7.9644E-03 WATTS
                                           STRUCTURE LOSS= 1.7848E-04 WATTS
                                           NETWORK LOSS  = 0.0000E+00 WATTS
                                           EFFICIENCY    =  97.81 PERCENT



                                                - - - RADIATION PATTERNS - - -

  - - ANGLES - -           - POWER GAINS -       - - - POLARIZATION - - -    - - - E(THETA) - - -    - - - E(PHI) - - -
  THETA     PHI        VERT.   HOR.    TOTAL      AXIAL     TILT   SENSE     MAGNITUDE    PHASE      MAGNITUDE    PHASE 
 DEGREES  DEGREES       DB      DB      DB        RATIO     DEG.              VOLTS/M    DEGREES      VOLTS/M    DEGREES
   85.00    90.00     -54.10   12.32   12.32    0.00035   -89.98  RIGHT     1.37831E-03   -22.46    2.88741E+00  -154.96






 ***** DATA CARD NO.  8   EN   0     1     1  1000  8.50000E+01  9.00000E+01  0.00000E+00  0.00000E+00  0.00000E+00  0.00000E+00

 RUN TIME =     0.469
