1



                                 *********************************************

                                    NUMERICAL ELECTROMAGNETICS CODE (NEC-2D)

                                 *********************************************




                                     - - - - COMMENTS - - - -


                          No comments specified                                                      
                                                                                                     




                                 - - - STRUCTURE SPECIFICATION - - -

                                     COORDINATES MUST BE INPUT IN
                                     METERS OR BE SCALED TO METERS
                                     BEFORE STRUCTURE INPUT IS ENDED


  WIRE                                                                               NO. OF    FIRST  LAST     TAG
  NO.        X1         Y1         Z1          X2         Y2         Z2      RADIUS   SEG.     SEG.   SEG.     NO.
     1   -0.13600    0.00000    0.12000    -0.03100    0.00000    0.12000    0.00250      2        1     2       1
     2   -0.03100    0.00000    0.12000     0.02100    0.00000    0.12000    0.00250      1        3     3     999
     3    0.02100    0.00000    0.12000     0.13600    0.00000    0.12000    0.00250      2        4     5       1
     4   -0.13300   -0.33000    0.12600    -0.13300   -0.33000    0.96400    0.00250     17        6    22       3
     5    0.13300   -0.33000    0.12600     0.13300   -0.33000    0.96400    0.00250     17       23    39       3
     6   -0.13300   -0.33000    0.12600     0.13300   -0.33000    0.12600    0.00250      6       40    45       3
     7   -0.13300   -0.33000    0.96400     0.00000   -0.33000    0.96400    0.00250      3       46    48       3
     8    0.00000   -0.33000    0.96400     0.13300   -0.33000    0.96400    0.00250      3       49    51       3
     9   -0.13600    0.00000    0.00000    -0.13600    0.00000    0.12000    0.00250      3       52    54       2
    10    0.13600    0.00000    0.00000     0.13600    0.00000    0.12000    0.00250      3       55    57       2
    11   -0.13600    0.00000    0.00000     0.13600    0.00000    0.00000    0.00250      6       58    63       2
    12   -0.13600    0.00000    0.97000     0.00000    0.00000    0.97000    0.00250      3       64    66       2
    13   -0.13600    0.00000    0.12000    -0.13600    0.00000    0.97000    0.00250     17       67    83       2
    14    0.13600    0.00000    0.12000     0.13600    0.00000    0.97000    0.00250     17       84   100       2
    15    0.00000    0.00000    0.97000     0.13600    0.00000    0.97000    0.00250      3      101   103       2
    16    0.00000    0.00000    0.97000     0.00000   -0.33000    0.96400    0.00050      7      104   110       4
    17    1.00000   -0.40000    0.00000     1.00000   -0.40000    0.50000    0.00250     10      111   120       5
    18    1.00000   -0.30000    0.00000     1.00000   -0.30000    0.50000    0.00250     10      121   130       5
    19    1.00000   -0.20000    0.00000     1.00000   -0.20000    0.50000    0.00250     10      131   140       5
    20    1.00000   -0.10000    0.00000     1.00000   -0.10000    0.50000    0.00250     10      141   150       5
    21    1.00000    0.00000    0.00000     1.00000    0.00000    0.50000    0.00250     10      151   160       5
    22    1.00000    0.10000    0.00000     1.00000    0.10000    0.50000    0.00250     10      161   170       5
    23    1.00000    0.20000    0.00000     1.00000    0.20000    0.50000    0.00250     10      171   180       5
    24    1.00000    0.30000    0.00000     1.00000    0.30000    0.50000    0.00250     10      181   190       5
    25    1.00000    0.40000    0.00000     1.00000    0.40000    0.50000    0.00250     10      191   200       5
    26    1.00000    0.50000    0.00000     1.00000    0.50000    0.50000    0.00250     10      201   210       5
    27    1.00000   -0.50000    0.00000     1.00000    0.50000    0.00000    0.00250     20      211   230       5
    28    1.00000   -0.50000    0.10000     1.00000    0.50000    0.10000    0.00250     20      231   250       5
    29    1.00000   -0.50000    0.20000     1.00000    0.50000    0.20000    0.00250     20      251   270       5
    30    1.00000   -0.50000    0.30000     1.00000    0.50000    0.30000    0.00250     20      271   290       5
    31    1.00000   -0.50000    0.40000     1.00000    0.50000    0.40000    0.00250     20      291   310       5
    32    1.00000   -0.50000    0.50000     1.00000    0.50000    0.50000    0.00250     20      311   330       5
      THE STRUCTURE HAS BEEN MOVED, MOVE DATA CARD IS -
        0    0   0.00000   0.00000   0.00000   0.00000   0.00000   8.00000   0.00000

   GROUND PLANE SPECIFIED.

   TOTAL SEGMENTS USED=  330     NO. SEG. IN A SYMMETRIC CELL=  330     SYMMETRY FLAG=  0


         - MULTIPLE WIRE JUNCTIONS -
 JUNCTION    SEGMENTS  (- FOR END 1, + FOR END 2)
     1        -1   54  -67
     2         5   57  -84
     3        48  -49  110
     4        66 -101 -104
     5      -111  212 -213
     6       112 -113  232 -233
     7       114 -115  252 -253
     8       116 -117  272 -273
     9       118 -119  292 -293
    10       120  312 -313
    11      -121  214 -215
    12       122 -123  234 -235
    13       124 -125  254 -255
    14       126 -127  274 -275
    15       128 -129  294 -295
    16       130  314 -315
    17      -131  216 -217
    18       132 -133  236 -237
    19       134 -135  256 -257
    20       136 -137  276 -277
    21       138 -139  296 -297
    22       140  316 -317
    23      -141  218 -219
    24       142 -143  238 -239
    25       144 -145  258 -259
    26       146 -147  278 -279
    27       148 -149  298 -299
    28       150  318 -319
    29      -151  220 -221
    30       152 -153  240 -241
    31       154 -155  260 -261
    32       156 -157  280 -281
    33       158 -159  300 -301
    34       160  320 -321
    35      -161  222 -223
    36       162 -163  242 -243
    37       164 -165  262 -263
    38       166 -167  282 -283
    39       168 -169  302 -303
    40       170  322 -323
    41      -171  224 -225
    42       172 -173  244 -245
    43       174 -175  264 -265
    44       176 -177  284 -285
    45       178 -179  304 -305
    46       180  324 -325
    47      -181  226 -227
    48       182 -183  246 -247
    49       184 -185  266 -267
    50       186 -187  286 -287
    51       188 -189  306 -307
    52       190  326 -327
    53      -191  228 -229
    54       192 -193  248 -249
    55       194 -195  268 -269
    56       196 -197  288 -289
    57       198 -199  308 -309
    58       200  328 -329
    59       202 -203  250
    60       204 -205  270
    61       206 -207  290
    62       208 -209  310




                                 - - - - SEGMENTATION DATA - - - -

                                        COORDINATES IN METERS

                         I+ AND I- INDICATE THE SEGMENTS BEFORE AND AFTER I


  SEG.   COORDINATES OF SEG. CENTER     SEG.     ORIENTATION ANGLES    WIRE    CONNECTION DATA   TAG
  NO.       X         Y         Z       LENGTH     ALPHA     BETA      RADIUS    I-   I    I+    NO.
     1  -0.10975   0.00000   8.12000   0.05250    0.00000   0.00000   0.00250    54    1    2      1
     2  -0.05725   0.00000   8.12000   0.05250    0.00000   0.00000   0.00250     1    2    3      1
     3  -0.00500   0.00000   8.12000   0.05200    0.00000   0.00000   0.00250     2    3    4    999
     4   0.04975   0.00000   8.12000   0.05750    0.00000   0.00000   0.00250     3    4    5      1
     5   0.10725   0.00000   8.12000   0.05750    0.00000   0.00000   0.00250     4    5  -57      1
     6  -0.13300  -0.33000   8.15065   0.04929   90.00000   0.00000   0.00250   -40    6    7      3
     7  -0.13300  -0.33000   8.19994   0.04929   90.00000   0.00000   0.00250     6    7    8      3
     8  -0.13300  -0.33000   8.24924   0.04929   90.00000   0.00000   0.00250     7    8    9      3
     9  -0.13300  -0.33000   8.29853   0.04929   90.00000   0.00000   0.00250     8    9   10      3
    10  -0.13300  -0.33000   8.34782   0.04929   90.00000   0.00000   0.00250     9   10   11      3
    11  -0.13300  -0.33000   8.39712   0.04929   90.00000   0.00000   0.00250    10   11   12      3
    12  -0.13300  -0.33000   8.44641   0.04929   90.00000   0.00000   0.00250    11   12   13      3
    13  -0.13300  -0.33000   8.49571   0.04929   90.00000   0.00000   0.00250    12   13   14      3
    14  -0.13300  -0.33000   8.54500   0.04929   90.00000   0.00000   0.00250    13   14   15      3
    15  -0.13300  -0.33000   8.59429   0.04929   90.00000   0.00000   0.00250    14   15   16      3
    16  -0.13300  -0.33000   8.64359   0.04929   90.00000   0.00000   0.00250    15   16   17      3
    17  -0.13300  -0.33000   8.69288   0.04929   90.00000   0.00000   0.00250    16   17   18      3
    18  -0.13300  -0.33000   8.74218   0.04929   90.00000   0.00000   0.00250    17   18   19      3
    19  -0.13300  -0.33000   8.79147   0.04929   90.00000   0.00000   0.00250    18   19   20      3
    20  -0.13300  -0.33000   8.84076   0.04929   90.00000   0.00000   0.00250    19   20   21      3
    21  -0.13300  -0.33000   8.89006   0.04929   90.00000   0.00000   0.00250    20   21   22      3
    22  -0.13300  -0.33000   8.93935   0.04929   90.00000   0.00000   0.00250    21   22   46      3
    23   0.13300  -0.33000   8.15065   0.04929   90.00000   0.00000   0.00250    45   23   24      3
    24   0.13300  -0.33000   8.19994   0.04929   90.00000   0.00000   0.00250    23   24   25      3
    25   0.13300  -0.33000   8.24924   0.04929   90.00000   0.00000   0.00250    24   25   26      3
    26   0.13300  -0.33000   8.29853   0.04929   90.00000   0.00000   0.00250    25   26   27      3
    27   0.13300  -0.33000   8.34782   0.04929   90.00000   0.00000   0.00250    26   27   28      3
    28   0.13300  -0.33000   8.39712   0.04929   90.00000   0.00000   0.00250    27   28   29      3
    29   0.13300  -0.33000   8.44641   0.04929   90.00000   0.00000   0.00250    28   29   30      3
    30   0.13300  -0.33000   8.49571   0.04929   90.00000   0.00000   0.00250    29   30   31      3
    31   0.13300  -0.33000   8.54500   0.04929   90.00000   0.00000   0.00250    30   31   32      3
    32   0.13300  -0.33000   8.59429   0.04929   90.00000   0.00000   0.00250    31   32   33      3
    33   0.13300  -0.33000   8.64359   0.04929   90.00000   0.00000   0.00250    32   33   34      3
    34   0.13300  -0.33000   8.69288   0.04929   90.00000   0.00000   0.00250    33   34   35      3
    35   0.13300  -0.33000   8.74218   0.04929   90.00000   0.00000   0.00250    34   35   36      3
    36   0.13300  -0.33000   8.79147   0.04929   90.00000   0.00000   0.00250    35   36   37      3
    37   0.13300  -0.33000   8.84076   0.04929   90.00000   0.00000   0.00250    36   37   38      3
    38   0.13300  -0.33000   8.89006   0.04929   90.00000   0.00000   0.00250    37   38   39      3
    39   0.13300  -0.33000   8.93935   0.04929   90.00000   0.00000   0.00250    38   39  -51      3
    40  -0.11083  -0.33000   8.12600   0.04433    0.00000   0.00000   0.00250    -6   40   41      3
    41  -0.06650  -0.33000   8.12600   0.04433    0.00000   0.00000   0.00250    40   41   42      3
    42  -0.02217  -0.33000   8.12600   0.04433    0.00000   0.00000   0.00250    41   42   43      3
    43   0.02217  -0.33000   8.12600   0.04433    0.00000   0.00000   0.00250    42   43   44      3
    44   0.06650  -0.33000   8.12600   0.04433    0.00000   0.00000   0.00250    43   44   45      3
    45   0.11083  -0.33000   8.12600   0.04433    0.00000   0.00000   0.00250    44   45   23      3
    46  -0.11083  -0.33000   8.96400   0.04433    0.00000   0.00000   0.00250    22   46   47      3
    47  -0.06650  -0.33000   8.96400   0.04433    0.00000   0.00000   0.00250    46   47   48      3
    48  -0.02217  -0.33000   8.96400   0.04433    0.00000   0.00000   0.00250    47   48   49      3
    49   0.02217  -0.33000   8.96400   0.04433    0.00000   0.00000   0.00250   110   49   50      3
    50   0.06650  -0.33000   8.96400   0.04433    0.00000   0.00000   0.00250    49   50   51      3
    51   0.11083  -0.33000   8.96400   0.04433    0.00000   0.00000   0.00250    50   51  -39      3
    52  -0.13600   0.00000   8.02000   0.04000   90.00000   0.00000   0.00250   -58   52   53      2
    53  -0.13600   0.00000   8.06000   0.04000   90.00000   0.00000   0.00250    52   53   54      2
    54  -0.13600   0.00000   8.10000   0.04000   90.00000   0.00000   0.00250    53   54   67      2
    55   0.13600   0.00000   8.02000   0.04000   90.00000   0.00000   0.00250    63   55   56      2
    56   0.13600   0.00000   8.06000   0.04000   90.00000   0.00000   0.00250    55   56   57      2
    57   0.13600   0.00000   8.10000   0.04000   90.00000   0.00000   0.00250    56   57   84      2
    58  -0.11333   0.00000   8.00000   0.04533    0.00000   0.00000   0.00250   -52   58   59      2
    59  -0.06800   0.00000   8.00000   0.04533    0.00000   0.00000   0.00250    58   59   60      2
    60  -0.02267   0.00000   8.00000   0.04533    0.00000   0.00000   0.00250    59   60   61      2
    61   0.02267   0.00000   8.00000   0.04533    0.00000   0.00000   0.00250    60   61   62      2
    62   0.06800   0.00000   8.00000   0.04533    0.00000   0.00000   0.00250    61   62   63      2
    63   0.11333   0.00000   8.00000   0.04533    0.00000   0.00000   0.00250    62   63   55      2
    64  -0.11333   0.00000   8.97000   0.04533    0.00000   0.00000   0.00250    83   64   65      2
    65  -0.06800   0.00000   8.97000   0.04533    0.00000   0.00000   0.00250    64   65   66      2
    66  -0.02267   0.00000   8.97000   0.04533    0.00000   0.00000   0.00250    65   66  101      2
    67  -0.13600   0.00000   8.14500   0.05000   90.00000   0.00000   0.00250    -1   67   68      2
    68  -0.13600   0.00000   8.19500   0.05000   90.00000   0.00000   0.00250    67   68   69      2
    69  -0.13600   0.00000   8.24500   0.05000   90.00000   0.00000   0.00250    68   69   70      2
    70  -0.13600   0.00000   8.29500   0.05000   90.00000   0.00000   0.00250    69   70   71      2
    71  -0.13600   0.00000   8.34500   0.05000   90.00000   0.00000   0.00250    70   71   72      2
    72  -0.13600   0.00000   8.39500   0.05000   90.00000   0.00000   0.00250    71   72   73      2
    73  -0.13600   0.00000   8.44500   0.05000   90.00000   0.00000   0.00250    72   73   74      2
    74  -0.13600   0.00000   8.49500   0.05000   90.00000   0.00000   0.00250    73   74   75      2
    75  -0.13600   0.00000   8.54500   0.05000   90.00000   0.00000   0.00250    74   75   76      2
    76  -0.13600   0.00000   8.59500   0.05000   90.00000   0.00000   0.00250    75   76   77      2
    77  -0.13600   0.00000   8.64500   0.05000   90.00000   0.00000   0.00250    76   77   78      2
    78  -0.13600   0.00000   8.69500   0.05000   90.00000   0.00000   0.00250    77   78   79      2
    79  -0.13600   0.00000   8.74500   0.05000   90.00000   0.00000   0.00250    78   79   80      2
    80  -0.13600   0.00000   8.79500   0.05000   90.00000   0.00000   0.00250    79   80   81      2
    81  -0.13600   0.00000   8.84500   0.05000   90.00000   0.00000   0.00250    80   81   82      2
    82  -0.13600   0.00000   8.89500   0.05000   90.00000   0.00000   0.00250    81   82   83      2
    83  -0.13600   0.00000   8.94500   0.05000   90.00000   0.00000   0.00250    82   83   64      2
    84   0.13600   0.00000   8.14500   0.05000   90.00000   0.00000   0.00250     5   84   85      2
    85   0.13600   0.00000   8.19500   0.05000   90.00000   0.00000   0.00250    84   85   86      2
    86   0.13600   0.00000   8.24500   0.05000   90.00000   0.00000   0.00250    85   86   87      2
    87   0.13600   0.00000   8.29500   0.05000   90.00000   0.00000   0.00250    86   87   88      2
    88   0.13600   0.00000   8.34500   0.05000   90.00000   0.00000   0.00250    87   88   89      2
    89   0.13600   0.00000   8.39500   0.05000   90.00000   0.00000   0.00250    88   89   90      2
    90   0.13600   0.00000   8.44500   0.05000   90.00000   0.00000   0.00250    89   90   91      2
    91   0.13600   0.00000   8.49500   0.05000   90.00000   0.00000   0.00250    90   91   92      2
    92   0.13600   0.00000   8.54500   0.05000   90.00000   0.00000   0.00250    91   92   93      2
    93   0.13600   0.00000   8.59500   0.05000   90.00000   0.00000   0.00250    92   93   94      2
    94   0.13600   0.00000   8.64500   0.05000   90.00000   0.00000   0.00250    93   94   95      2
    95   0.13600   0.00000   8.69500   0.05000   90.00000   0.00000   0.00250    94   95   96      2
    96   0.13600   0.00000   8.74500   0.05000   90.00000   0.00000   0.00250    95   96   97      2
    97   0.13600   0.00000   8.79500   0.05000   90.00000   0.00000   0.00250    96   97   98      2
    98   0.13600   0.00000   8.84500   0.05000   90.00000   0.00000   0.00250    97   98   99      2
    99   0.13600   0.00000   8.89500   0.05000   90.00000   0.00000   0.00250    98   99  100      2
   100   0.13600   0.00000   8.94500   0.05000   90.00000   0.00000   0.00250    99  100 -103      2
   101   0.02267   0.00000   8.97000   0.04533    0.00000   0.00000   0.00250  -104  101  102      2
   102   0.06800   0.00000   8.97000   0.04533    0.00000   0.00000   0.00250   101  102  103      2
   103   0.11333   0.00000   8.97000   0.04533    0.00000   0.00000   0.00250   102  103 -100      2
   104   0.00000  -0.02357   8.96957   0.04715   -1.04163 -90.00000   0.00050    66  104  105      4
   105   0.00000  -0.07071   8.96871   0.04715   -1.04163 -90.00000   0.00050   104  105  106      4
   106   0.00000  -0.11786   8.96786   0.04715   -1.04163 -90.00000   0.00050   105  106  107      4
   107   0.00000  -0.16500   8.96700   0.04715   -1.04163 -90.00000   0.00050   106  107  108      4
   108   0.00000  -0.21214   8.96614   0.04715   -1.04163 -90.00000   0.00050   107  108  109      4
   109   0.00000  -0.25929   8.96529   0.04715   -1.04163 -90.00000   0.00050   108  109  110      4
   110   0.00000  -0.30643   8.96443   0.04715   -1.04163 -90.00000   0.00050   109  110  -48      4
   111   1.00000  -0.40000   8.02500   0.05000   90.00000  90.00000   0.00250   212  111  112      5
   112   1.00000  -0.40000   8.07500   0.05000   90.00000   0.00000   0.00250   111  112  113      5
   113   1.00000  -0.40000   8.12500   0.05000   90.00000   0.00000   0.00250   232  113  114      5
   114   1.00000  -0.40000   8.17500   0.05000   90.00000   0.00000   0.00250   113  114  115      5
   115   1.00000  -0.40000   8.22500   0.05000   90.00000   0.00000   0.00250   252  115  116      5
   116   1.00000  -0.40000   8.27500   0.05000   90.00000   0.00000   0.00250   115  116  117      5
   117   1.00000  -0.40000   8.32500   0.05000   90.00000   0.00000   0.00250   272  117  118      5
   118   1.00000  -0.40000   8.37500   0.05000   90.00000   0.00000   0.00250   117  118  119      5
   119   1.00000  -0.40000   8.42500   0.05000   90.00000   0.00000   0.00250   292  119  120      5
   120   1.00000  -0.40000   8.47500   0.05000   90.00000 -90.00000   0.00250   119  120 -312      5
   121   1.00000  -0.30000   8.02500   0.05000   90.00000   0.00000   0.00250   214  121  122      5
   122   1.00000  -0.30000   8.07500   0.05000   90.00000   0.00000   0.00250   121  122  123      5
   123   1.00000  -0.30000   8.12500   0.05000   90.00000   0.00000   0.00250   234  123  124      5
   124   1.00000  -0.30000   8.17500   0.05000   90.00000   0.00000   0.00250   123  124  125      5
   125   1.00000  -0.30000   8.22500   0.05000   90.00000   0.00000   0.00250   254  125  126      5
   126   1.00000  -0.30000   8.27500   0.05000   90.00000   0.00000   0.00250   125  126  127      5
   127   1.00000  -0.30000   8.32500   0.05000   90.00000   0.00000   0.00250   274  127  128      5
   128   1.00000  -0.30000   8.37500   0.05000   90.00000   0.00000   0.00250   127  128  129      5
   129   1.00000  -0.30000   8.42500   0.05000   90.00000   0.00000   0.00250   294  129  130      5
   130   1.00000  -0.30000   8.47500   0.05000   90.00000   0.00000   0.00250   129  130 -314      5
   131   1.00000  -0.20000   8.02500   0.05000   90.00000 -90.00000   0.00250   216  131  132      5
   132   1.00000  -0.20000   8.07500   0.05000   90.00000  90.00000   0.00250   131  132  133      5
   133   1.00000  -0.20000   8.12500   0.05000   90.00000 -90.00000   0.00250   236  133  134      5
   134   1.00000  -0.20000   8.17500   0.05000   90.00000  90.00000   0.00250   133  134  135      5
   135   1.00000  -0.20000   8.22500   0.05000   90.00000 -90.00000   0.00250   256  135  136      5
   136   1.00000  -0.20000   8.27500   0.05000   90.00000  90.00000   0.00250   135  136  137      5
   137   1.00000  -0.20000   8.32500   0.05000   90.00000 -90.00000   0.00250   276  137  138      5
   138   1.00000  -0.20000   8.37500   0.05000   90.00000  90.00000   0.00250   137  138  139      5
   139   1.00000  -0.20000   8.42500   0.05000   90.00000 -90.00000   0.00250   296  139  140      5
   140   1.00000  -0.20000   8.47500   0.05000   90.00000  90.00000   0.00250   139  140 -316      5
   141   1.00000  -0.10000   8.02500   0.05000   90.00000 -90.00000   0.00250   218  141  142      5
   142   1.00000  -0.10000   8.07500   0.05000   90.00000  90.00000   0.00250   141  142  143      5
   143   1.00000  -0.10000   8.12500   0.05000   90.00000 -90.00000   0.00250   238  143  144      5
   144   1.00000  -0.10000   8.17500   0.05000   90.00000  90.00000   0.00250   143  144  145      5
   145   1.00000  -0.10000   8.22500   0.05000   90.00000 -90.00000   0.00250   258  145  146      5
   146   1.00000  -0.10000   8.27500   0.05000   90.00000  90.00000   0.00250   145  146  147      5
   147   1.00000  -0.10000   8.32500   0.05000   90.00000 -90.00000   0.00250   278  147  148      5
   148   1.00000  -0.10000   8.37500   0.05000   90.00000  90.00000   0.00250   147  148  149      5
   149   1.00000  -0.10000   8.42500   0.05000   90.00000 -90.00000   0.00250   298  149  150      5
   150   1.00000  -0.10000   8.47500   0.05000   90.00000  90.00000   0.00250   149  150 -318      5
   151   1.00000   0.00000   8.02500   0.05000   90.00000 -90.00000   0.00250   220  151  152      5
   152   1.00000   0.00000   8.07500   0.05000   90.00000  90.00000   0.00250   151  152  153      5
   153   1.00000   0.00000   8.12500   0.05000   90.00000 -90.00000   0.00250   240  153  154      5
   154   1.00000   0.00000   8.17500   0.05000   90.00000  90.00000   0.00250   153  154  155      5
   155   1.00000   0.00000   8.22500   0.05000   90.00000 -90.00000   0.00250   260  155  156      5
   156   1.00000   0.00000   8.27500   0.05000   90.00000  90.00000   0.00250   155  156  157      5
   157   1.00000   0.00000   8.32500   0.05000   90.00000 -90.00000   0.00250   280  157  158      5
   158   1.00000   0.00000   8.37500   0.05000   90.00000  90.00000   0.00250   157  158  159      5
   159   1.00000   0.00000   8.42500   0.05000   90.00000 -90.00000   0.00250   300  159  160      5
   160   1.00000   0.00000   8.47500   0.05000   90.00000  90.00000   0.00250   159  160 -320      5
   161   1.00000   0.10000   8.02500   0.05000   90.00000 -90.00000   0.00250   222  161  162      5
   162   1.00000   0.10000   8.07500   0.05000   90.00000  90.00000   0.00250   161  162  163      5
   163   1.00000   0.10000   8.12500   0.05000   90.00000 -90.00000   0.00250   242  163  164      5
   164   1.00000   0.10000   8.17500   0.05000   90.00000  90.00000   0.00250   163  164  165      5
   165   1.00000   0.10000   8.22500   0.05000   90.00000 -90.00000   0.00250   262  165  166      5
   166   1.00000   0.10000   8.27500   0.05000   90.00000  90.00000   0.00250   165  166  167      5
   167   1.00000   0.10000   8.32500   0.05000   90.00000 -90.00000   0.00250   282  167  168      5
   168   1.00000   0.10000   8.37500   0.05000   90.00000  90.00000   0.00250   167  168  169      5
   169   1.00000   0.10000   8.42500   0.05000   90.00000 -90.00000   0.00250   302  169  170      5
   170   1.00000   0.10000   8.47500   0.05000   90.00000  90.00000   0.00250   169  170 -322      5
   171   1.00000   0.20000   8.02500   0.05000   90.00000 -90.00000   0.00250   224  171  172      5
   172   1.00000   0.20000   8.07500   0.05000   90.00000  90.00000   0.00250   171  172  173      5
   173   1.00000   0.20000   8.12500   0.05000   90.00000 -90.00000   0.00250   244  173  174      5
   174   1.00000   0.20000   8.17500   0.05000   90.00000  90.00000   0.00250   173  174  175      5
   175   1.00000   0.20000   8.22500   0.05000   90.00000 -90.00000   0.00250   264  175  176      5
   176   1.00000   0.20000   8.27500   0.05000   90.00000  90.00000   0.00250   175  176  177      5
   177   1.00000   0.20000   8.32500   0.05000   90.00000 -90.00000   0.00250   284  177  178      5
   178   1.00000   0.20000   8.37500   0.05000   90.00000  90.00000   0.00250   177  178  179      5
   179   1.00000   0.20000   8.42500   0.05000   90.00000 -90.00000   0.00250   304  179  180      5
   180   1.00000   0.20000   8.47500   0.05000   90.00000  90.00000   0.00250   179  180 -324      5
   181   1.00000   0.30000   8.02500   0.05000   90.00000 -90.00000   0.00250   226  181  182      5
   182   1.00000   0.30000   8.07500   0.05000   90.00000  90.00000   0.00250   181  182  183      5
   183   1.00000   0.30000   8.12500   0.05000   90.00000 -90.00000   0.00250   246  183  184      5
   184   1.00000   0.30000   8.17500   0.05000   90.00000  90.00000   0.00250   183  184  185      5
   185   1.00000   0.30000   8.22500   0.05000   90.00000 -90.00000   0.00250   266  185  186      5
   186   1.00000   0.30000   8.27500   0.05000   90.00000  90.00000   0.00250   185  186  187      5
   187   1.00000   0.30000   8.32500   0.05000   90.00000 -90.00000   0.00250   286  187  188      5
   188   1.00000   0.30000   8.37500   0.05000   90.00000  90.00000   0.00250   187  188  189      5
   189   1.00000   0.30000   8.42500   0.05000   90.00000 -90.00000   0.00250   306  189  190      5
   190   1.00000   0.30000   8.47500   0.05000   90.00000  90.00000   0.00250   189  190 -326      5
   191   1.00000   0.40000   8.02500   0.05000   90.00000 -90.00000   0.00250   228  191  192      5
   192   1.00000   0.40000   8.07500   0.05000   90.00000   0.00000   0.00250   191  192  193      5
   193   1.00000   0.40000   8.12500   0.05000   90.00000   0.00000   0.00250   248  193  194      5
   194   1.00000   0.40000   8.17500   0.05000   90.00000   0.00000   0.00250   193  194  195      5
   195   1.00000   0.40000   8.22500   0.05000   90.00000   0.00000   0.00250   268  195  196      5
   196   1.00000   0.40000   8.27500   0.05000   90.00000   0.00000   0.00250   195  196  197      5
   197   1.00000   0.40000   8.32500   0.05000   90.00000   0.00000   0.00250   288  197  198      5
   198   1.00000   0.40000   8.37500   0.05000   90.00000   0.00000   0.00250   197  198  199      5
   199   1.00000   0.40000   8.42500   0.05000   90.00000   0.00000   0.00250   308  199  200      5
   200   1.00000   0.40000   8.47500   0.05000   90.00000  90.00000   0.00250   199  200 -328      5
   201   1.00000   0.50000   8.02500   0.05000   90.00000   0.00000   0.00250   230  201  202      5
   202   1.00000   0.50000   8.07500   0.05000   90.00000   0.00000   0.00250   201  202  203      5
   203   1.00000   0.50000   8.12500   0.05000   90.00000   0.00000   0.00250   250  203  204      5
   204   1.00000   0.50000   8.17500   0.05000   90.00000   0.00000   0.00250   203  204  205      5
   205   1.00000   0.50000   8.22500   0.05000   90.00000   0.00000   0.00250   270  205  206      5
   206   1.00000   0.50000   8.27500   0.05000   90.00000   0.00000   0.00250   205  206  207      5
   207   1.00000   0.50000   8.32500   0.05000   90.00000   0.00000   0.00250   290  207  208      5
   208   1.00000   0.50000   8.37500   0.05000   90.00000   0.00000   0.00250   207  208  209      5
   209   1.00000   0.50000   8.42500   0.05000   90.00000   0.00000   0.00250   310  209  210      5
   210   1.00000   0.50000   8.47500   0.05000   90.00000   0.00000   0.00250   209  210 -330      5
   211   1.00000  -0.47500   8.00000   0.05000    0.00000  90.00000   0.00250     0  211  212      5
   212   1.00000  -0.42500   8.00000   0.05000    0.00000  90.00000   0.00250   211  212  213      5
   213   1.00000  -0.37500   8.00000   0.05000    0.00000  90.00000   0.00250  -111  213  214      5
   214   1.00000  -0.32500   8.00000   0.05000    0.00000  90.00000   0.00250   213  214  215      5
   215   1.00000  -0.27500   8.00000   0.05000    0.00000  90.00000   0.00250  -121  215  216      5
   216   1.00000  -0.22500   8.00000   0.05000    0.00000  90.00000   0.00250   215  216  217      5
   217   1.00000  -0.17500   8.00000   0.05000    0.00000  90.00000   0.00250  -131  217  218      5
   218   1.00000  -0.12500   8.00000   0.05000    0.00000  90.00000   0.00250   217  218  219      5
   219   1.00000  -0.07500   8.00000   0.05000    0.00000  90.00000   0.00250  -141  219  220      5
   220   1.00000  -0.02500   8.00000   0.05000    0.00000  90.00000   0.00250   219  220  221      5
   221   1.00000   0.02500   8.00000   0.05000    0.00000  90.00000   0.00250  -151  221  222      5
   222   1.00000   0.07500   8.00000   0.05000    0.00000  90.00000   0.00250   221  222  223      5
   223   1.00000   0.12500   8.00000   0.05000    0.00000  90.00000   0.00250  -161  223  224      5
   224   1.00000   0.17500   8.00000   0.05000    0.00000  90.00000   0.00250   223  224  225      5
   225   1.00000   0.22500   8.00000   0.05000    0.00000  90.00000   0.00250  -171  225  226      5
   226   1.00000   0.27500   8.00000   0.05000    0.00000  90.00000   0.00250   225  226  227      5
   227   1.00000   0.32500   8.00000   0.05000    0.00000  90.00000   0.00250  -181  227  228      5
   228   1.00000   0.37500   8.00000   0.05000    0.00000  90.00000   0.00250   227  228  229      5
   229   1.00000   0.42500   8.00000   0.05000    0.00000  90.00000   0.00250  -191  229  230      5
   230   1.00000   0.47500   8.00000   0.05000    0.00000  90.00000   0.00250   229  230  201      5
   231   1.00000  -0.47500   8.10000   0.05000    0.00000  90.00000   0.00250     0  231  232      5
   232   1.00000  -0.42500   8.10000   0.05000    0.00000  90.00000   0.00250   231  232  233      5
   233   1.00000  -0.37500   8.10000   0.05000    0.00000  90.00000   0.00250   112  233  234      5
   234   1.00000  -0.32500   8.10000   0.05000    0.00000  90.00000   0.00250   233  234  235      5
   235   1.00000  -0.27500   8.10000   0.05000    0.00000  90.00000   0.00250   122  235  236      5
   236   1.00000  -0.22500   8.10000   0.05000    0.00000  90.00000   0.00250   235  236  237      5
   237   1.00000  -0.17500   8.10000   0.05000    0.00000  90.00000   0.00250   132  237  238      5
   238   1.00000  -0.12500   8.10000   0.05000    0.00000  90.00000   0.00250   237  238  239      5
   239   1.00000  -0.07500   8.10000   0.05000    0.00000  90.00000   0.00250   142  239  240      5
   240   1.00000  -0.02500   8.10000   0.05000    0.00000  90.00000   0.00250   239  240  241      5
   241   1.00000   0.02500   8.10000   0.05000    0.00000  90.00000   0.00250   152  241  242      5
   242   1.00000   0.07500   8.10000   0.05000    0.00000  90.00000   0.00250   241  242  243      5
   243   1.00000   0.12500   8.10000   0.05000    0.00000  90.00000   0.00250   162  243  244      5
   244   1.00000   0.17500   8.10000   0.05000    0.00000  90.00000   0.00250   243  244  245      5
   245   1.00000   0.22500   8.10000   0.05000    0.00000  90.00000   0.00250   172  245  246      5
   246   1.00000   0.27500   8.10000   0.05000    0.00000  90.00000   0.00250   245  246  247      5
   247   1.00000   0.32500   8.10000   0.05000    0.00000  90.00000   0.00250   182  247  248      5
   248   1.00000   0.37500   8.10000   0.05000    0.00000  90.00000   0.00250   247  248  249      5
   249   1.00000   0.42500   8.10000   0.05000    0.00000  90.00000   0.00250   192  249  250      5
   250   1.00000   0.47500   8.10000   0.05000    0.00000  90.00000   0.00250   249  250 -202      5
   251   1.00000  -0.47500   8.20000   0.05000    0.00000  90.00000   0.00250     0  251  252      5
   252   1.00000  -0.42500   8.20000   0.05000    0.00000  90.00000   0.00250   251  252  253      5
   253   1.00000  -0.37500   8.20000   0.05000    0.00000  90.00000   0.00250   114  253  254      5
   254   1.00000  -0.32500   8.20000   0.05000    0.00000  90.00000   0.00250   253  254  255      5
   255   1.00000  -0.27500   8.20000   0.05000    0.00000  90.00000   0.00250   124  255  256      5
   256   1.00000  -0.22500   8.20000   0.05000    0.00000  90.00000   0.00250   255  256  257      5
   257   1.00000  -0.17500   8.20000   0.05000    0.00000  90.00000   0.00250   134  257  258      5
   258   1.00000  -0.12500   8.20000   0.05000    0.00000  90.00000   0.00250   257  258  259      5
   259   1.00000  -0.07500   8.20000   0.05000    0.00000  90.00000   0.00250   144  259  260      5
   260   1.00000  -0.02500   8.20000   0.05000    0.00000  90.00000   0.00250   259  260  261      5
   261   1.00000   0.02500   8.20000   0.05000    0.00000  90.00000   0.00250   154  261  262      5
   262   1.00000   0.07500   8.20000   0.05000    0.00000  90.00000   0.00250   261  262  263      5
   263   1.00000   0.12500   8.20000   0.05000    0.00000  90.00000   0.00250   164  263  264      5
   264   1.00000   0.17500   8.20000   0.05000    0.00000  90.00000   0.00250   263  264  265      5
   265   1.00000   0.22500   8.20000   0.05000    0.00000  90.00000   0.00250   174  265  266      5
   266   1.00000   0.27500   8.20000   0.05000    0.00000  90.00000   0.00250   265  266  267      5
   267   1.00000   0.32500   8.20000   0.05000    0.00000  90.00000   0.00250   184  267  268      5
   268   1.00000   0.37500   8.20000   0.05000    0.00000  90.00000   0.00250   267  268  269      5
   269   1.00000   0.42500   8.20000   0.05000    0.00000  90.00000   0.00250   194  269  270      5
   270   1.00000   0.47500   8.20000   0.05000    0.00000  90.00000   0.00250   269  270 -204      5
   271   1.00000  -0.47500   8.30000   0.05000    0.00000  90.00000   0.00250     0  271  272      5
   272   1.00000  -0.42500   8.30000   0.05000    0.00000  90.00000   0.00250   271  272  273      5
   273   1.00000  -0.37500   8.30000   0.05000    0.00000  90.00000   0.00250   116  273  274      5
   274   1.00000  -0.32500   8.30000   0.05000    0.00000  90.00000   0.00250   273  274  275      5
   275   1.00000  -0.27500   8.30000   0.05000    0.00000  90.00000   0.00250   126  275  276      5
   276   1.00000  -0.22500   8.30000   0.05000    0.00000  90.00000   0.00250   275  276  277      5
   277   1.00000  -0.17500   8.30000   0.05000    0.00000  90.00000   0.00250   136  277  278      5
   278   1.00000  -0.12500   8.30000   0.05000    0.00000  90.00000   0.00250   277  278  279      5
   279   1.00000  -0.07500   8.30000   0.05000    0.00000  90.00000   0.00250   146  279  280      5
   280   1.00000  -0.02500   8.30000   0.05000    0.00000  90.00000   0.00250   279  280  281      5
   281   1.00000   0.02500   8.30000   0.05000    0.00000  90.00000   0.00250   156  281  282      5
   282   1.00000   0.07500   8.30000   0.05000    0.00000  90.00000   0.00250   281  282  283      5
   283   1.00000   0.12500   8.30000   0.05000    0.00000  90.00000   0.00250   166  283  284      5
   284   1.00000   0.17500   8.30000   0.05000    0.00000  90.00000   0.00250   283  284  285      5
   285   1.00000   0.22500   8.30000   0.05000    0.00000  90.00000   0.00250   176  285  286      5
   286   1.00000   0.27500   8.30000   0.05000    0.00000  90.00000   0.00250   285  286  287      5
   287   1.00000   0.32500   8.30000   0.05000    0.00000  90.00000   0.00250   186  287  288      5
   288   1.00000   0.37500   8.30000   0.05000    0.00000  90.00000   0.00250   287  288  289      5
   289   1.00000   0.42500   8.30000   0.05000    0.00000  90.00000   0.00250   196  289  290      5
   290   1.00000   0.47500   8.30000   0.05000    0.00000  90.00000   0.00250   289  290 -206      5
   291   1.00000  -0.47500   8.40000   0.05000    0.00000  90.00000   0.00250     0  291  292      5
   292   1.00000  -0.42500   8.40000   0.05000    0.00000  90.00000   0.00250   291  292  293      5
   293   1.00000  -0.37500   8.40000   0.05000    0.00000  90.00000   0.00250   118  293  294      5
   294   1.00000  -0.32500   8.40000   0.05000    0.00000  90.00000   0.00250   293  294  295      5
   295   1.00000  -0.27500   8.40000   0.05000    0.00000  90.00000   0.00250   128  295  296      5
   296   1.00000  -0.22500   8.40000   0.05000    0.00000  90.00000   0.00250   295  296  297      5
   297   1.00000  -0.17500   8.40000   0.05000    0.00000  90.00000   0.00250   138  297  298      5
   298   1.00000  -0.12500   8.40000   0.05000    0.00000  90.00000   0.00250   297  298  299      5
   299   1.00000  -0.07500   8.40000   0.05000    0.00000  90.00000   0.00250   148  299  300      5
   300   1.00000  -0.02500   8.40000   0.05000    0.00000  90.00000   0.00250   299  300  301      5
   301   1.00000   0.02500   8.40000   0.05000    0.00000  90.00000   0.00250   158  301  302      5
   302   1.00000   0.07500   8.40000   0.05000    0.00000  90.00000   0.00250   301  302  303      5
   303   1.00000   0.12500   8.40000   0.05000    0.00000  90.00000   0.00250   168  303  304      5
   304   1.00000   0.17500   8.40000   0.05000    0.00000  90.00000   0.00250   303  304  305      5
   305   1.00000   0.22500   8.40000   0.05000    0.00000  90.00000   0.00250   178  305  306      5
   306   1.00000   0.27500   8.40000   0.05000    0.00000  90.00000   0.00250   305  306  307      5
   307   1.00000   0.32500   8.40000   0.05000    0.00000  90.00000   0.00250   188  307  308      5
   308   1.00000   0.37500   8.40000   0.05000    0.00000  90.00000   0.00250   307  308  309      5
   309   1.00000   0.42500   8.40000   0.05000    0.00000  90.00000   0.00250   198  309  310      5
   310   1.00000   0.47500   8.40000   0.05000    0.00000  90.00000   0.00250   309  310 -208      5
   311   1.00000  -0.47500   8.50000   0.05000    0.00000  90.00000   0.00250     0  311  312      5
   312   1.00000  -0.42500   8.50000   0.05000    0.00000  90.00000   0.00250   311  312  313      5
   313   1.00000  -0.37500   8.50000   0.05000    0.00000  90.00000   0.00250   120  313  314      5
   314   1.00000  -0.32500   8.50000   0.05000    0.00000  90.00000   0.00250   313  314  315      5
   315   1.00000  -0.27500   8.50000   0.05000    0.00000  90.00000   0.00250   130  315  316      5
   316   1.00000  -0.22500   8.50000   0.05000    0.00000  90.00000   0.00250   315  316  317      5
   317   1.00000  -0.17500   8.50000   0.05000    0.00000  90.00000   0.00250   140  317  318      5
   318   1.00000  -0.12500   8.50000   0.05000    0.00000  90.00000   0.00250   317  318  319      5
   319   1.00000  -0.07500   8.50000   0.05000    0.00000  90.00000   0.00250   150  319  320      5
   320   1.00000  -0.02500   8.50000   0.05000    0.00000  90.00000   0.00250   319  320  321      5
   321   1.00000   0.02500   8.50000   0.05000    0.00000  90.00000   0.00250   160  321  322      5
   322   1.00000   0.07500   8.50000   0.05000    0.00000  90.00000   0.00250   321  322  323      5
   323   1.00000   0.12500   8.50000   0.05000    0.00000  90.00000   0.00250   170  323  324      5
   324   1.00000   0.17500   8.50000   0.05000    0.00000  90.00000   0.00250   323  324  325      5
   325   1.00000   0.22500   8.50000   0.05000    0.00000  90.00000   0.00250   180  325  326      5
   326   1.00000   0.27500   8.50000   0.05000    0.00000  90.00000   0.00250   325  326  327      5
   327   1.00000   0.32500   8.50000   0.05000    0.00000  90.00000   0.00250   190  327  328      5
   328   1.00000   0.37500   8.50000   0.05000    0.00000  90.00000   0.00250   327  328  329      5
   329   1.00000   0.42500   8.50000   0.05000    0.00000  90.00000   0.00250   200  329  330      5
   330   1.00000   0.47500   8.50000   0.05000    0.00000  90.00000   0.00250   329  330 -210      5






 ***** DATA CARD NO.  1   GN   2     0     0     0  1.10000E+01  1.00000E-02  0.00000E+00  0.00000E+00  0.00000E+00  0.00000E+00
 ***** DATA CARD NO.  2   EK   0     0     0     0  0.00000E+00  0.00000E+00  0.00000E+00  0.00000E+00  0.00000E+00  0.00000E+00
 ***** DATA CARD NO.  3   LD   5     0     0     0  5.80000E+07  0.00000E+00  0.00000E+00  0.00000E+00  0.00000E+00  0.00000E+00
 ***** DATA CARD NO.  4   LD   1     5     0     0  1.72414E+00  1.00000E-12  0.00000E+00  0.00000E+00  0.00000E+00  0.00000E+00
 ***** DATA CARD NO.  5   EX   0   999     1     0  1.00000E+00  0.00000E+00  0.00000E+00  0.00000E+00  0.00000E+00  0.00000E+00
 ***** DATA CARD NO.  6   FR   0     1     0     0  1.44200E+02  0.00000E+00  0.00000E+00  0.00000E+00  0.00000E+00  0.00000E+00
 ***** DATA CARD NO.  7   RP   0     1     1  1000  8.50000E+01  9.00000E+01  0.00000E+00  0.00000E+00  0.00000E+00  0.00000E+00




                                 - - - - - - FREQUENCY - - - - - -

                                    FREQUENCY= 1.4420E+02 MHZ
                                    WAVELENGTH= 2.0791E+00 METERS




                    APPROXIMATE INTEGRATION EMPLOYED FOR SEGMENTS MORE THAN   1.000 WAVELENGTHS APART

                    THE EXTENDED THIN WIRE KERNEL WILL BE USED



                               - - - STRUCTURE IMPEDANCE LOADING - - -


       LOCATION          RESISTANCE   INDUCTANCE  CAPACITANCE       IMPEDANCE (OHMS)     CONDUCTIVITY    TYPE
    ITAG FROM THRU          OHMS        HENRYS       FARADS        REAL      IMAGINARY    MHOS/METER

     ALL                                                                                 5.8000E+07     WIRE  

       5                1.7241E+00   1.0000E-12                                                       PARALLEL

          NOTE, SOME OF THE ABOVE SEGMENTS HAVE BEEN LOADED TWICE - IMPEDANCES ADDED



                                  - - - ANTENNA ENVIRONMENT - - -

                                        FINITE GROUND.  SOMMERFELD SOLUTION
                                        RELATIVE DIELECTRIC CONST.= 11.000
                                        CONDUCTIVITY= 1.000E-02 MHOS/METER
                                        COMPLEX DIELECTRIC CONSTANT= 1.10000E+01-1.24660E+00



                                - - - MATRIX TIMING - - -

                        FILL=    0.359 SEC.,  FACTOR=    0.031 SEC.



                                          - - - ANTENNA INPUT PARAMETERS - - -

   TAG   SEG.    VOLTAGE (VOLTS)         CURRENT (AMPS)         IMPEDANCE (OHMS)        ADMITTANCE (MHOS)      POWER
   NO.   NO.    REAL        IMAG.       REAL        IMAG.       REAL        IMAG.       REAL        IMAG.     (WATTS)
   999     3 1.00000E+00 0.00000E+00 1.60781E-02-1.05719E-02 4.34226E+01 2.85519E+01 1.60781E-02-1.05719E-02 8.03904E-03



                             - - - CURRENTS AND LOCATION - - -

                                 DISTANCES IN WAVELENGTHS


  SEG.  TAG    COORD. OF SEG. CENTER     SEG.            - - - CURRENT (AMPS) - - -
  NO.   NO.     X        Y        Z      LENGTH     REAL        IMAG.       MAG.        PHASE
     1    1  -0.0528   0.0000   3.9056  0.02525   1.5432E-02 -1.0704E-02  1.8781E-02  -34.747
     2    1  -0.0275   0.0000   3.9056  0.02525   1.5891E-02 -1.0753E-02  1.9187E-02  -34.086
     3  999  -0.0024   0.0000   3.9056  0.02501   1.6078E-02 -1.0572E-02  1.9242E-02  -33.326
     4    1   0.0239   0.0000   3.9056  0.02766   1.5945E-02 -1.0813E-02  1.9266E-02  -34.142
     5    1   0.0516   0.0000   3.9056  0.02766   1.5480E-02 -1.0785E-02  1.8867E-02  -34.864
     6    3  -0.0640  -0.1587   3.9204  0.02371   1.4802E-02 -2.5585E-02  2.9558E-02  -59.950
     7    3  -0.0640  -0.1587   3.9441  0.02371   1.3733E-02 -2.3775E-02  2.7456E-02  -59.989
     8    3  -0.0640  -0.1587   3.9678  0.02371   1.2371E-02 -2.1461E-02  2.4771E-02  -60.040
     9    3  -0.0640  -0.1587   3.9915  0.02371   1.0742E-02 -1.8686E-02  2.1554E-02  -60.108
    10    3  -0.0640  -0.1587   4.0152  0.02371   8.8795E-03 -1.5508E-02  1.7870E-02  -60.206
    11    3  -0.0640  -0.1587   4.0389  0.02371   6.8238E-03 -1.1994E-02  1.3799E-02  -60.363
    12    3  -0.0640  -0.1587   4.0626  0.02371   4.6191E-03 -8.2188E-03  9.4278E-03  -60.663
    13    3  -0.0640  -0.1587   4.0863  0.02371   2.3135E-03 -4.2655E-03  4.8524E-03  -61.526
    14    3  -0.0640  -0.1587   4.1100  0.02371  -4.2421E-05 -2.2012E-04  2.2417E-04 -100.908
    15    3  -0.0640  -0.1587   4.1337  0.02371  -2.3968E-03  3.8287E-03  4.5170E-03  122.047
    16    3  -0.0640  -0.1587   4.1575  0.02371  -4.6979E-03  7.7922E-03  9.0988E-03  121.086
    17    3  -0.0640  -0.1587   4.1812  0.02371  -6.8950E-03  1.1584E-02  1.3481E-02  120.762
    18    3  -0.0640  -0.1587   4.2049  0.02371  -8.9400E-03  1.5121E-02  1.7566E-02  120.593
    19    3  -0.0640  -0.1587   4.2286  0.02371  -1.0788E-02  1.8328E-02  2.1267E-02  120.482
    20    3  -0.0640  -0.1587   4.2523  0.02371  -1.2400E-02  2.1135E-02  2.4504E-02  120.400
    21    3  -0.0640  -0.1587   4.2760  0.02371  -1.3741E-02  2.3486E-02  2.7211E-02  120.331
    22    3  -0.0640  -0.1587   4.2997  0.02371  -1.4786E-02  2.5336E-02  2.9334E-02  120.268
    23    3   0.0640  -0.1587   3.9204  0.02371  -1.4872E-02  2.5480E-02  2.9503E-02  120.271
    24    3   0.0640  -0.1587   3.9441  0.02371  -1.3823E-02  2.3642E-02  2.7387E-02  120.313
    25    3   0.0640  -0.1587   3.9678  0.02371  -1.2478E-02  2.1303E-02  2.4688E-02  120.359
    26    3   0.0640  -0.1587   3.9915  0.02371  -1.0863E-02  1.8506E-02  2.1459E-02  120.414
    27    3   0.0640  -0.1587   4.0152  0.02371  -9.0126E-03  1.5309E-02  1.7765E-02  120.486
    28    3   0.0640  -0.1587   4.0389  0.02371  -6.9653E-03  1.1780E-02  1.3685E-02  120.596
    29    3   0.0640  -0.1587   4.0626  0.02371  -4.7658E-03  7.9941E-03  9.3069E-03  120.802
    30    3   0.0640  -0.1587   4.0863  0.02371  -2.4622E-03  4.0340E-03  4.7260E-03  121.398
    31    3   0.0640  -0.1587   4.1100  0.02371  -1.0498E-04 -1.4011E-05  1.0591E-04 -172.398
    32    3   0.0640  -0.1587   4.1337  0.02371   2.2539E-03 -4.0613E-03  4.6448E-03  -60.971
    33    3   0.0640  -0.1587   4.1575  0.02371   4.5625E-03 -8.0194E-03  9.2264E-03  -60.363
    34    3   0.0640  -0.1587   4.1812  0.02371   6.7699E-03 -1.1802E-02  1.3606E-02  -60.160
    35    3   0.0640  -0.1587   4.2049  0.02371   8.8278E-03 -1.5326E-02  1.7687E-02  -60.058
    36    3   0.0640  -0.1587   4.2286  0.02371   1.0691E-02 -1.8516E-02  2.1381E-02  -59.998
    37    3   0.0640  -0.1587   4.2523  0.02371   1.2320E-02 -2.1304E-02  2.4610E-02  -59.960
    38    3   0.0640  -0.1587   4.2760  0.02371   1.3679E-02 -2.3633E-02  2.7307E-02  -59.937
    39    3   0.0640  -0.1587   4.2997  0.02371   1.4743E-02 -2.5459E-02  2.9419E-02  -59.925
    40    3  -0.0533  -0.1587   3.9085  0.02132  -1.5537E-02  2.6823E-02  3.0998E-02  120.081
    41    3  -0.0320  -0.1587   3.9085  0.02132  -1.6010E-02  2.7605E-02  3.1912E-02  120.112
    42    3  -0.0107  -0.1587   3.9085  0.02132  -1.6256E-02  2.7995E-02  3.2372E-02  120.143
    43    3   0.0107  -0.1587   3.9085  0.02132  -1.6266E-02  2.7979E-02  3.2364E-02  120.173
    44    3   0.0320  -0.1587   3.9085  0.02132  -1.6040E-02  2.7559E-02  3.1887E-02  120.201
    45    3   0.0533  -0.1587   3.9085  0.02132  -1.5587E-02  2.6747E-02  3.0957E-02  120.231
    46    3  -0.0533  -0.1587   4.3116  0.02132  -1.5495E-02  2.6612E-02  3.0794E-02  120.210
    47    3  -0.0320  -0.1587   4.3116  0.02132  -1.5945E-02  2.7428E-02  3.1726E-02  120.170
    48    3  -0.0107  -0.1587   4.3116  0.02132  -1.6170E-02  2.7848E-02  3.2202E-02  120.142
    49    3   0.0107  -0.1587   4.3116  0.02132  -1.6181E-02  2.7900E-02  3.2252E-02  120.112
    50    3   0.0320  -0.1587   4.3116  0.02132  -1.5939E-02  2.7503E-02  3.1788E-02  120.093
    51    3   0.0533  -0.1587   4.3116  0.02132  -1.5471E-02  2.6710E-02  3.0867E-02  120.080
    52    2  -0.0654   0.0000   3.8575  0.01924  -6.5628E-03  1.6480E-03  6.7666E-03  165.904
    53    2  -0.0654   0.0000   3.8768  0.01924  -6.1011E-03  1.4203E-03  6.2643E-03  166.896
    54    2  -0.0654   0.0000   3.8960  0.01924  -5.5917E-03  1.1801E-03  5.7149E-03  168.083
    55    2   0.0654   0.0000   3.8575  0.01924   6.5721E-03 -1.6388E-03  6.7734E-03  -14.002
    56    2   0.0654   0.0000   3.8768  0.01924   6.1122E-03 -1.4092E-03  6.2726E-03  -12.983
    57    2   0.0654   0.0000   3.8960  0.01924   5.6037E-03 -1.1664E-03  5.7238E-03  -11.759
    58    2  -0.0545   0.0000   3.8479  0.02180   6.9652E-03 -1.8599E-03  7.2093E-03  -14.951
    59    2  -0.0327   0.0000   3.8479  0.02180   7.2565E-03 -2.0155E-03  7.5312E-03  -15.522
    60    2  -0.0109   0.0000   3.8479  0.02180   7.4027E-03 -2.0935E-03  7.6930E-03  -15.791
    61    2   0.0109   0.0000   3.8479  0.02180   7.4041E-03 -2.0913E-03  7.6937E-03  -15.773
    62    2   0.0327   0.0000   3.8479  0.02180   7.2606E-03 -2.0097E-03  7.5336E-03  -15.472
    63    2   0.0545   0.0000   3.8479  0.02180   6.9721E-03 -1.8518E-03  7.2138E-03  -14.875
    64    2  -0.0545   0.0000   4.3145  0.02180   2.0824E-02 -1.1567E-02  2.3821E-02  -29.052
    65    2  -0.0327   0.0000   4.3145  0.02180   2.1508E-02 -1.1999E-02  2.4628E-02  -29.157
    66    2  -0.0109   0.0000   4.3145  0.02180   2.1854E-02 -1.2219E-02  2.5038E-02  -29.210
    67    2  -0.0654   0.0000   3.9176  0.02405  -2.0160E-02  1.1497E-02  2.3208E-02  150.304
    68    2  -0.0654   0.0000   3.9417  0.02405  -1.8976E-02  1.0912E-02  2.1890E-02  150.100
    69    2  -0.0654   0.0000   3.9657  0.02405  -1.7317E-02  1.0062E-02  2.0028E-02  149.842
    70    2  -0.0654   0.0000   3.9898  0.02405  -1.5253E-02  8.9768E-03  1.7699E-02  149.523
    71    2  -0.0654   0.0000   4.0138  0.02405  -1.2838E-02  7.6828E-03  1.4962E-02  149.103
    72    2  -0.0654   0.0000   4.0379  0.02405  -1.0129E-02  6.2100E-03  1.1881E-02  148.487
    73    2  -0.0654   0.0000   4.0619  0.02405  -7.1868E-03  4.5924E-03  8.5288E-03  147.421
    74    2  -0.0654   0.0000   4.0860  0.02405  -4.0800E-03  2.8675E-03  4.9869E-03  144.899
    75    2  -0.0654   0.0000   4.1100  0.02405  -8.7906E-04  1.0750E-03  1.3887E-03  129.274
    76    2  -0.0654   0.0000   4.1341  0.02405   2.3432E-03 -7.4401E-04  2.4584E-03  -17.616
    77    2  -0.0654   0.0000   4.1581  0.02405   5.5136E-03 -2.5478E-03  6.0738E-03  -24.801
    78    2  -0.0654   0.0000   4.1822  0.02405   8.5607E-03 -4.2950E-03  9.5777E-03  -26.643
    79    2  -0.0654   0.0000   4.2062  0.02405   1.1416E-02 -5.9459E-03  1.2872E-02  -27.513
    80    2  -0.0654   0.0000   4.2303  0.02405   1.4016E-02 -7.4632E-03  1.5879E-02  -28.035
    81    2  -0.0654   0.0000   4.2543  0.02405   1.6303E-02 -8.8128E-03  1.8532E-02  -28.394
    82    2  -0.0654   0.0000   4.2784  0.02405   1.8229E-02 -9.9655E-03  2.0775E-02  -28.665
    83    2  -0.0654   0.0000   4.3024  0.02405   1.9756E-02 -1.0898E-02  2.2562E-02  -28.882
    84    2   0.0654   0.0000   3.9176  0.02405   2.0198E-02 -1.1552E-02  2.3268E-02  -29.768
    85    2   0.0654   0.0000   3.9417  0.02405   1.9014E-02 -1.0962E-02  2.1947E-02  -29.966
    86    2   0.0654   0.0000   3.9657  0.02405   1.7354E-02 -1.0107E-02  2.0083E-02  -30.217
    87    2   0.0654   0.0000   3.9898  0.02405   1.5290E-02 -9.0175E-03  1.7751E-02  -30.531
    88    2   0.0654   0.0000   4.0138  0.02405   1.2873E-02 -7.7185E-03  1.5010E-02  -30.946
    89    2   0.0654   0.0000   4.0379  0.02405   1.0161E-02 -6.2406E-03  1.1924E-02  -31.558
    90    2   0.0654   0.0000   4.0619  0.02405   7.2154E-03 -4.6182E-03  8.5667E-03  -32.621
    91    2   0.0654   0.0000   4.0860  0.02405   4.1042E-03 -2.8885E-03  5.0188E-03  -35.138
    92    2   0.0654   0.0000   4.1100  0.02405   8.9820E-04 -1.0915E-03  1.4135E-03  -50.548
    93    2   0.0654   0.0000   4.1341  0.02405  -2.3297E-03  7.3169E-04  2.4419E-03  162.564
    94    2   0.0654   0.0000   4.1581  0.02405  -5.5064E-03  2.5392E-03  6.0637E-03  155.244
    95    2   0.0654   0.0000   4.1822  0.02405  -8.5600E-03  4.2898E-03  9.5747E-03  153.383
    96    2   0.0654   0.0000   4.2062  0.02405  -1.1422E-02  5.9435E-03  1.2876E-02  152.509
    97    2   0.0654   0.0000   4.2303  0.02405  -1.4028E-02  7.4630E-03  1.5890E-02  151.987
    98    2   0.0654   0.0000   4.2543  0.02405  -1.6321E-02  8.8144E-03  1.8549E-02  151.629
    99    2   0.0654   0.0000   4.2784  0.02405  -1.8253E-02  9.9684E-03  2.0798E-02  151.360
   100    2   0.0654   0.0000   4.3024  0.02405  -1.9785E-02  1.0902E-02  2.2590E-02  151.145
   101    2   0.0109   0.0000   4.3145  0.02180   2.1894E-02 -1.2223E-02  2.5075E-02  -29.173
   102    2   0.0327   0.0000   4.3145  0.02180   2.1545E-02 -1.2004E-02  2.4663E-02  -29.124
   103    2   0.0545   0.0000   4.3145  0.02180   2.0857E-02 -1.1572E-02  2.3852E-02  -29.022
   104    4   0.0000  -0.0113   4.3143  0.02268  -4.1269E-05  3.2536E-06  4.1397E-05  175.492
   105    4   0.0000  -0.0340   4.3138  0.02268  -4.0819E-05  4.9884E-06  4.1123E-05  173.033
   106    4   0.0000  -0.0567   4.3134  0.02268  -3.9054E-05  8.7639E-06  4.0025E-05  167.352
   107    4   0.0000  -0.0794   4.3130  0.02268  -3.6018E-05  1.4334E-05  3.8765E-05  158.299
   108    4   0.0000  -0.1020   4.3126  0.02268  -3.1810E-05  2.1409E-05  3.8343E-05  146.058
   109    4   0.0000  -0.1247   4.3122  0.02268  -2.6592E-05  2.9620E-05  3.9806E-05  131.916
   110    4   0.0000  -0.1474   4.3118  0.02268  -2.0773E-05  3.8263E-05  4.3538E-05  118.497
   111    5   0.4810  -0.1924   3.8599  0.02405  -7.9120E-05  1.2290E-05  8.0069E-05  171.171
   112    5   0.4810  -0.1924   3.8840  0.02405  -7.6540E-05 -3.2800E-05  8.3272E-05 -156.803
   113    5   0.4810  -0.1924   3.9080  0.02405  -1.2022E-04 -2.9769E-05  1.2385E-04 -166.092
   114    5   0.4810  -0.1924   3.9321  0.02405  -1.1219E-04 -6.2741E-05  1.2854E-04 -150.785
   115    5   0.4810  -0.1924   3.9561  0.02405  -1.3652E-04 -5.7405E-05  1.4810E-04 -157.194
   116    5   0.4810  -0.1924   3.9802  0.02405  -1.2265E-04 -8.5887E-05  1.4973E-04 -144.998
   117    5   0.4810  -0.1924   4.0042  0.02405  -1.2591E-04 -6.9517E-05  1.4383E-04 -151.096
   118    5   0.4810  -0.1924   4.0283  0.02405  -1.0531E-04 -9.6537E-05  1.4286E-04 -137.490
   119    5   0.4810  -0.1924   4.0523  0.02405  -8.2087E-05 -5.9009E-05  1.0110E-04 -144.289
   120    5   0.4810  -0.1924   4.0764  0.02405  -5.0213E-05 -9.1442E-05  1.0432E-04 -118.772
   121    5   0.4810  -0.1443   3.8599  0.02405  -6.2132E-05  7.9966E-06  6.2644E-05  172.666
   122    5   0.4810  -0.1443   3.8840  0.02405  -5.5447E-05 -2.7522E-05  6.1901E-05 -153.602
   123    5   0.4810  -0.1443   3.9080  0.02405  -9.4765E-05 -1.8202E-05  9.6497E-05 -169.127
   124    5   0.4810  -0.1443   3.9321  0.02405  -8.3905E-05 -4.2898E-05  9.4235E-05 -152.921
   125    5   0.4810  -0.1443   3.9561  0.02405  -1.0484E-04 -2.9466E-05  1.0890E-04 -164.302
   126    5   0.4810  -0.1443   3.9802  0.02405  -8.9138E-05 -5.0695E-05  1.0255E-04 -150.372
   127    5   0.4810  -0.1443   4.0042  0.02405  -9.4688E-05 -3.0499E-05  9.9479E-05 -162.146
   128    5   0.4810  -0.1443   4.0283  0.02405  -7.3128E-05 -5.1260E-05  8.9305E-05 -144.971
   129    5   0.4810  -0.1443   4.0523  0.02405  -6.2821E-05 -2.0761E-05  6.6163E-05 -161.712
   130    5   0.4810  -0.1443   4.0764  0.02405  -2.9864E-05 -4.7682E-05  5.6262E-05 -122.060
   131    5   0.4810  -0.0962   3.8599  0.02405  -6.0445E-05  9.1560E-06  6.1134E-05  171.387
   132    5   0.4810  -0.0962   3.8840  0.02405  -5.2686E-05 -1.9957E-05  5.6339E-05 -159.254
   133    5   0.4810  -0.0962   3.9080  0.02405  -9.0560E-05 -6.9604E-06  9.0827E-05 -175.605
   134    5   0.4810  -0.0962   3.9321  0.02405  -7.8684E-05 -2.7447E-05  8.3333E-05 -160.770
   135    5   0.4810  -0.0962   3.9561  0.02405  -9.8878E-05 -1.2204E-05  9.9628E-05 -172.964
   136    5   0.4810  -0.0962   3.9802  0.02405  -8.2230E-05 -3.0195E-05  8.7598E-05 -159.836
   137    5   0.4810  -0.0962   4.0042  0.02405  -8.8896E-05 -1.1195E-05  8.9598E-05 -172.823
   138    5   0.4810  -0.0962   4.0283  0.02405  -6.6475E-05 -2.9264E-05  7.2631E-05 -156.239
   139    5   0.4810  -0.0962   4.0523  0.02405  -6.0632E-05 -5.1219E-06  6.0848E-05 -175.171
   140    5   0.4810  -0.0962   4.0764  0.02405  -2.6675E-05 -2.9031E-05  3.9425E-05 -132.577
   141    5   0.4810  -0.0481   3.8599  0.02405  -5.9950E-05  1.2032E-05  6.1145E-05  168.651
   142    5   0.4810  -0.0481   3.8840  0.02405  -5.4036E-05 -9.7113E-06  5.4901E-05 -169.812
   143    5   0.4810  -0.0481   3.9080  0.02405  -9.0321E-05  4.5494E-06  9.0436E-05  177.116
   144    5   0.4810  -0.0481   3.9321  0.02405  -7.9610E-05 -1.1599E-05  8.0451E-05 -171.711
   145    5   0.4810  -0.0481   3.9561  0.02405  -9.8118E-05  2.3427E-06  9.8146E-05  178.632
   146    5   0.4810  -0.0481   3.9802  0.02405  -8.2459E-05 -1.2480E-05  8.3398E-05 -171.394
   147    5   0.4810  -0.0481   4.0042  0.02405  -8.8029E-05  2.6815E-06  8.8070E-05  178.255
   148    5   0.4810  -0.0481   4.0283  0.02405  -6.6662E-05 -1.2619E-05  6.7846E-05 -169.281
   149    5   0.4810  -0.0481   4.0523  0.02405  -6.0772E-05  4.7218E-06  6.0955E-05  175.557
   150    5   0.4810  -0.0481   4.0764  0.02405  -2.8388E-05 -1.5458E-05  3.2324E-05 -151.431
   151    5   0.4810   0.0000   3.8599  0.02405  -5.7072E-05  1.3920E-05  5.8745E-05  166.293
   152    5   0.4810   0.0000   3.8840  0.02405  -5.6057E-05  1.6319E-06  5.6081E-05  178.332
   153    5   0.4810   0.0000   3.9080  0.02405  -8.8708E-05  1.4808E-05  8.9935E-05  170.523
   154    5   0.4810   0.0000   3.9321  0.02405  -8.1622E-05  4.3866E-06  8.1739E-05  176.924
   155    5   0.4810   0.0000   3.9561  0.02405  -9.6459E-05  1.4613E-05  9.7559E-05  171.386
   156    5   0.4810   0.0000   3.9802  0.02405  -8.4196E-05  4.2074E-06  8.4301E-05  177.139
   157    5   0.4810   0.0000   4.0042  0.02405  -8.6326E-05  1.3495E-05  8.7374E-05  171.115
   158    5   0.4810   0.0000   4.0283  0.02405  -6.8595E-05  2.3355E-06  6.8635E-05  178.050
   159    5   0.4810   0.0000   4.0523  0.02405  -5.9608E-05  1.1764E-05  6.0758E-05  168.836
   160    5   0.4810   0.0000   4.0764  0.02405  -3.2233E-05 -2.6943E-06  3.2345E-05 -175.222
   161    5   0.4810   0.0481   3.8599  0.02405  -5.0431E-05  1.3029E-05  5.2087E-05  165.514
   162    5   0.4810   0.0481   3.8840  0.02405  -5.7244E-05  1.2793E-05  5.8656E-05  167.402
   163    5   0.4810   0.0481   3.9080  0.02405  -8.3444E-05  2.2244E-05  8.6358E-05  165.074
   164    5   0.4810   0.0481   3.9321  0.02405  -8.2467E-05  1.9595E-05  8.4763E-05  166.634
   165    5   0.4810   0.0481   3.9561  0.02405  -9.1371E-05  2.3825E-05  9.4426E-05  165.386
   166    5   0.4810   0.0481   3.9802  0.02405  -8.5035E-05  1.9837E-05  8.7318E-05  166.869
   167    5   0.4810   0.0481   4.0042  0.02405  -8.1565E-05  2.1332E-05  8.4308E-05  165.343
   168    5   0.4810   0.0481   4.0283  0.02405  -7.0239E-05  1.6460E-05  7.2142E-05  166.811
   169    5   0.4810   0.0481   4.0523  0.02405  -5.5853E-05  1.6446E-05  5.8223E-05  163.593
   170    5   0.4810   0.0481   4.0764  0.02405  -3.7113E-05  1.0507E-05  3.8572E-05  164.193
   171    5   0.4810   0.0962   3.8599  0.02405  -3.9777E-05  8.1091E-06  4.0595E-05  168.477
   172    5   0.4810   0.0962   3.8840  0.02405  -5.6891E-05  2.2732E-05  6.1265E-05  158.220
   173    5   0.4810   0.0962   3.9080  0.02405  -7.4046E-05  2.5791E-05  7.8409E-05  160.796
   174    5   0.4810   0.0962   3.9321  0.02405  -8.1415E-05  3.3380E-05  8.7992E-05  157.706
   175    5   0.4810   0.0962   3.9561  0.02405  -8.2343E-05  2.9437E-05  8.7447E-05  160.328
   176    5   0.4810   0.0962   3.9802  0.02405  -8.4273E-05  3.4374E-05  9.1014E-05  157.810
   177    5   0.4810   0.0962   4.0042  0.02405  -7.3412E-05  2.6232E-05  7.7958E-05  160.337
   178    5   0.4810   0.0962   4.0283  0.02405  -7.1043E-05  3.0300E-05  7.7235E-05  156.902
   179    5   0.4810   0.0962   4.0523  0.02405  -4.9581E-05  1.9190E-05  5.3165E-05  158.841
   180    5   0.4810   0.0962   4.0764  0.02405  -4.2717E-05  2.5009E-05  4.9499E-05  149.652
   181    5   0.4810   0.1443   3.8599  0.02405  -2.5694E-05 -1.8248E-06  2.5758E-05 -175.938
   182    5   0.4810   0.1443   3.8840  0.02405  -5.5096E-05  3.0830E-05  6.3135E-05  150.770
   183    5   0.4810   0.1443   3.9080  0.02405  -6.1442E-05  2.5002E-05  6.6334E-05  157.858
   184    5   0.4810   0.1443   3.9321  0.02405  -7.9173E-05  4.5954E-05  9.1543E-05  149.868
   185    5   0.4810   0.1443   3.9561  0.02405  -7.0371E-05  3.1596E-05  7.7139E-05  155.820
   186    5   0.4810   0.1443   3.9802  0.02405  -8.2704E-05  4.8695E-05  9.5975E-05  149.511
   187    5   0.4810   0.1443   4.0042  0.02405  -6.2853E-05  2.8940E-05  6.9195E-05  155.277
   188    5   0.4810   0.1443   4.0283  0.02405  -7.1678E-05  4.5248E-05  8.4766E-05  147.737
   189    5   0.4810   0.1443   4.0523  0.02405  -4.1903E-05  2.1189E-05  4.6955E-05  153.175
   190    5   0.4810   0.1443   4.0764  0.02405  -4.9475E-05  4.2407E-05  6.5163E-05  139.399
   191    5   0.4810   0.1924   3.8599  0.02405  -1.2057E-05 -1.4360E-05  1.8751E-05 -130.018
   192    5   0.4810   0.1924   3.8840  0.02405  -5.6798E-05  4.2311E-05  7.0826E-05  143.316
   193    5   0.4810   0.1924   3.9080  0.02405  -4.8065E-05  1.9770E-05  5.1972E-05  157.642
   194    5   0.4810   0.1924   3.9321  0.02405  -7.9511E-05  6.0364E-05  9.9829E-05  142.794
   195    5   0.4810   0.1924   3.9561  0.02405  -5.7832E-05  3.1180E-05  6.5702E-05  151.669
   196    5   0.4810   0.1924   3.9802  0.02405  -8.3949E-05  6.6792E-05  1.0728E-04  141.493
   197    5   0.4810   0.1924   4.0042  0.02405  -5.1854E-05  3.1294E-05  6.0566E-05  148.889
   198    5   0.4810   0.1924   4.0283  0.02405  -7.5099E-05  6.6007E-05  9.9984E-05  138.687
   199    5   0.4810   0.1924   4.0523  0.02405  -3.2895E-05  2.1963E-05  3.9553E-05  146.270
   200    5   0.4810   0.1924   4.0764  0.02405  -5.7860E-05  6.4528E-05  8.6670E-05  131.881
   201    5   0.4810   0.2405   3.8599  0.02405   2.7039E-05 -7.3072E-05  7.7914E-05  -69.694
   202    5   0.4810   0.2405   3.8840  0.02405  -4.7374E-05  3.2090E-05  5.7219E-05  145.887
   203    5   0.4810   0.2405   3.9080  0.02405  -1.4878E-05 -2.4656E-05  2.8797E-05 -121.108
   204    5   0.4810   0.2405   3.9321  0.02405  -7.3933E-05  5.9370E-05  9.4820E-05  141.235
   205    5   0.4810   0.2405   3.9561  0.02405  -3.6967E-05  1.5980E-05  4.0273E-05  156.622
   206    5   0.4810   0.2405   3.9802  0.02405  -9.0112E-05  9.3207E-05  1.2964E-04  134.033
   207    5   0.4810   0.2405   4.0042  0.02405  -4.1116E-05  4.1739E-05  5.8589E-05  134.570
   208    5   0.4810   0.2405   4.0283  0.02405  -9.1152E-05  1.1696E-04  1.4828E-04  127.931
   209    5   0.4810   0.2405   4.0523  0.02405  -2.1609E-05  3.5551E-05  4.1603E-05  121.293
   210    5   0.4810   0.2405   4.0764  0.02405  -7.5411E-05  1.2081E-04  1.4241E-04  121.973
   211    5   0.4810  -0.2285   3.8479  0.02405  -7.0088E-06 -5.1523E-05  5.1998E-05  -97.747
   212    5   0.4810  -0.2044   3.8479  0.02405  -1.3124E-05 -1.2217E-04  1.2288E-04  -96.131
   213    5   0.4810  -0.1804   3.8479  0.02405   6.5548E-05 -2.0497E-04  2.1520E-04  -72.266
   214    5   0.4810  -0.1563   3.8479  0.02405   6.7835E-05 -2.5503E-04  2.6389E-04  -75.105
   215    5   0.4810  -0.1323   3.8479  0.02405   1.3568E-04 -3.2085E-04  3.4836E-04  -67.077
   216    5   0.4810  -0.1082   3.8479  0.02405   1.4087E-04 -3.6255E-04  3.8895E-04  -68.767
   217    5   0.4810  -0.0842   3.8479  0.02405   2.0843E-04 -4.1891E-04  4.6789E-04  -63.547
   218    5   0.4810  -0.0601   3.8479  0.02405   2.1293E-04 -4.5148E-04  4.9918E-04  -64.750
   219    5   0.4810  -0.0361   3.8479  0.02405   2.7685E-04 -4.9789E-04  5.6968E-04  -60.924
   220    5   0.4810  -0.0120   3.8479  0.02405   2.7700E-04 -5.1896E-04  5.8826E-04  -61.908
   221    5   0.4810   0.0120   3.8479  0.02405   3.3022E-04 -5.5092E-04  6.4230E-04  -59.062
   222    5   0.4810   0.0361   3.8479  0.02405   3.2242E-04 -5.5745E-04  6.4397E-04  -59.956
   223    5   0.4810   0.0601   3.8479  0.02405   3.5681E-04 -5.6815E-04  6.7090E-04  -57.870
   224    5   0.4810   0.0842   3.8479  0.02405   3.3790E-04 -5.5692E-04  6.5141E-04  -58.754
   225    5   0.4810   0.1082   3.8479  0.02405   3.4590E-04 -5.3826E-04  6.3982E-04  -57.274
   226    5   0.4810   0.1323   3.8479  0.02405   3.1350E-04 -5.0608E-04  5.9531E-04  -58.223
   227    5   0.4810   0.1563   3.8479  0.02405   2.8910E-04 -4.4882E-04  5.3387E-04  -57.214
   228    5   0.4810   0.1804   3.8479  0.02405   2.4131E-04 -3.9190E-04  4.6024E-04  -58.378
   229    5   0.4810   0.2044   3.8479  0.02405   1.8158E-04 -2.8635E-04  3.3907E-04  -57.621
   230    5   0.4810   0.2285   3.8479  0.02405   1.1061E-04 -1.9087E-04  2.2060E-04  -59.908
   231    5   0.4810  -0.2285   3.8960  0.02405  -9.4609E-07 -4.3772E-05  4.3782E-05  -91.238
   232    5   0.4810  -0.2044   3.8960  0.02405   8.9624E-07 -9.8157E-05  9.8161E-05  -89.477
   233    5   0.4810  -0.1804   3.8960  0.02405   5.2071E-05 -1.5549E-04  1.6398E-04  -71.485
   234    5   0.4810  -0.1563   3.8960  0.02405   5.9054E-05 -1.8672E-04  1.9584E-04  -72.450
   235    5   0.4810  -0.1323   3.8960  0.02405   1.1082E-04 -2.3739E-04  2.6199E-04  -64.975
   236    5   0.4810  -0.1082   3.8960  0.02405   1.1998E-04 -2.6285E-04  2.8894E-04  -65.465
   237    5   0.4810  -0.0842   3.8960  0.02405   1.7182E-04 -3.0986E-04  3.5431E-04  -60.991
   238    5   0.4810  -0.0601   3.8960  0.02405   1.8084E-04 -3.3036E-04  3.7662E-04  -61.304
   239    5   0.4810  -0.0361   3.8960  0.02405   2.2907E-04 -3.7071E-04  4.3577E-04  -58.288
   240    5   0.4810  -0.0120   3.8960  0.02405   2.3543E-04 -3.8515E-04  4.5141E-04  -58.564
   241    5   0.4810   0.0120   3.8960  0.02405   2.7417E-04 -4.1415E-04  4.9668E-04  -56.495
   242    5   0.4810   0.0361   3.8960  0.02405   2.7529E-04 -4.2061E-04  5.0269E-04  -56.795
   243    5   0.4810   0.0601   3.8960  0.02405   2.9797E-04 -4.3241E-04  5.2513E-04  -55.430
   244    5   0.4810   0.0842   3.8960  0.02405   2.9141E-04 -4.2854E-04  5.1824E-04  -55.784
   245    5   0.4810   0.1082   3.8960  0.02405   2.9215E-04 -4.1680E-04  5.0899E-04  -54.972
   246    5   0.4810   0.1323   3.8960  0.02405   2.7589E-04 -3.9993E-04  4.8585E-04  -55.400
   247    5   0.4810   0.1563   3.8960  0.02405   2.5005E-04 -3.5765E-04  4.3639E-04  -55.041
   248    5   0.4810   0.1804   3.8960  0.02405   2.2197E-04 -3.2392E-04  3.9267E-04  -55.578
   249    5   0.4810   0.2044   3.8960  0.02405   1.6053E-04 -2.3430E-04  2.8402E-04  -55.582
   250    5   0.4810   0.2285   3.8960  0.02405   1.1271E-04 -1.7001E-04  2.0398E-04  -56.458
   251    5   0.4810  -0.2285   3.9441  0.02405   5.6854E-06 -3.7746E-05  3.8172E-05  -81.434
   252    5   0.4810  -0.2044   3.9441  0.02405   1.5838E-05 -8.3695E-05  8.5180E-05  -79.285
   253    5   0.4810  -0.1804   3.9441  0.02405   5.5949E-05 -1.3350E-04  1.4475E-04  -67.262
   254    5   0.4810  -0.1563   3.9441  0.02405   6.7879E-05 -1.5859E-04  1.7251E-04  -66.828
   255    5   0.4810  -0.1323   3.9441  0.02405   1.0803E-04 -2.0503E-04  2.3175E-04  -62.216
   256    5   0.4810  -0.1082   3.9441  0.02405   1.2175E-04 -2.2543E-04  2.5621E-04  -61.628
   257    5   0.4810  -0.0842   3.9441  0.02405   1.6259E-04 -2.6829E-04  3.1371E-04  -58.782
   258    5   0.4810  -0.0601   3.9441  0.02405   1.7635E-04 -2.8528E-04  3.3539E-04  -58.276
   259    5   0.4810  -0.0361   3.9441  0.02405   2.1399E-04 -3.2148E-04  3.8619E-04  -56.351
   260    5   0.4810  -0.0120   3.9441  0.02405   2.2556E-04 -3.3434E-04  4.0331E-04  -55.995
   261    5   0.4810   0.0120   3.9441  0.02405   2.5449E-04 -3.5961E-04  4.4055E-04  -54.714
   262    5   0.4810   0.0361   3.9441  0.02405   2.6142E-04 -3.6667E-04  4.5032E-04  -54.513
   263    5   0.4810   0.0601   3.9441  0.02405   2.7575E-04 -3.7582E-04  4.6613E-04  -53.731
   264    5   0.4810   0.0842   3.9441  0.02405   2.7565E-04 -3.7486E-04  4.6530E-04  -53.671
   265    5   0.4810   0.1082   3.9441  0.02405   2.7004E-04 -3.6210E-04  4.5170E-04  -53.286
   266    5   0.4810   0.1323   3.9441  0.02405   2.6080E-04 -3.5042E-04  4.3682E-04  -53.341
   267    5   0.4810   0.1563   3.9441  0.02405   2.3044E-04 -3.0884E-04  3.8534E-04  -53.271
   268    5   0.4810   0.1804   3.9441  0.02405   2.0980E-04 -2.8238E-04  3.5179E-04  -53.389
   269    5   0.4810   0.2044   3.9441  0.02405   1.4654E-04 -1.9823E-04  2.4652E-04  -53.526
   270    5   0.4810   0.2285   3.9441  0.02405   1.0668E-04 -1.4336E-04  1.7870E-04  -53.345
   271    5   0.4810  -0.2285   3.9922  0.02405   1.2959E-05 -3.3972E-05  3.6360E-05  -69.120
   272    5   0.4810  -0.2044   3.9922  0.02405   3.2245E-05 -7.5248E-05  8.1866E-05  -66.804
   273    5   0.4810  -0.1804   3.9922  0.02405   6.0488E-05 -1.3166E-04  1.4489E-04  -65.325
   274    5   0.4810  -0.1563   3.9922  0.02405   7.7988E-05 -1.5431E-04  1.7290E-04  -63.188
   275    5   0.4810  -0.1323   3.9922  0.02405   1.1049E-04 -2.0460E-04  2.3253E-04  -61.631
   276    5   0.4810  -0.1082   3.9922  0.02405   1.2942E-04 -2.2338E-04  2.5817E-04  -59.914
   277    5   0.4810  -0.0842   3.9922  0.02405   1.6433E-04 -2.6820E-04  3.1454E-04  -58.504
   278    5   0.4810  -0.0601   3.9922  0.02405   1.8332E-04 -2.8436E-04  3.3832E-04  -57.191
   279    5   0.4810  -0.0361   3.9922  0.02405   2.1568E-04 -3.2113E-04  3.8684E-04  -56.114
   280    5   0.4810  -0.0120   3.9922  0.02405   2.3252E-04 -3.3395E-04  4.0692E-04  -55.152
   281    5   0.4810   0.0120   3.9922  0.02405   2.5640E-04 -3.5879E-04  4.4099E-04  -54.449
   282    5   0.4810   0.0361   3.9922  0.02405   2.6852E-04 -3.6658E-04  4.5441E-04  -53.777
   283    5   0.4810   0.0601   3.9922  0.02405   2.7794E-04 -3.7458E-04  4.6643E-04  -53.424
   284    5   0.4810   0.0842   3.9922  0.02405   2.8281E-04 -3.7505E-04  4.6973E-04  -52.981
   285    5   0.4810   0.1082   3.9922  0.02405   2.7243E-04 -3.6061E-04  4.5195E-04  -52.930
   286    5   0.4810   0.1323   3.9922  0.02405   2.6781E-04 -3.5095E-04  4.4146E-04  -52.653
   287    5   0.4810   0.1563   3.9922  0.02405   2.3282E-04 -3.0732E-04  3.8556E-04  -52.853
   288    5   0.4810   0.1804   3.9922  0.02405   2.1638E-04 -2.8344E-04  3.5659E-04  -52.641
   289    5   0.4810   0.2044   3.9922  0.02405   1.4865E-04 -1.9724E-04  2.4698E-04  -52.995
   290    5   0.4810   0.2285   3.9922  0.02405   1.1300E-04 -1.4591E-04  1.8455E-04  -52.243
   291    5   0.4810  -0.2285   4.0403  0.02405   2.1124E-05 -3.2698E-05  3.8928E-05  -57.137
   292    5   0.4810  -0.2044   4.0403  0.02405   5.1123E-05 -7.3248E-05  8.9324E-05  -55.087
   293    5   0.4810  -0.1804   4.0403  0.02405   6.4504E-05 -1.5178E-04  1.6492E-04  -66.975
   294    5   0.4810  -0.1563   4.0403  0.02405   8.9435E-05 -1.7564E-04  1.9710E-04  -63.015
   295    5   0.4810  -0.1323   4.0403  0.02405   1.1680E-04 -2.3864E-04  2.6569E-04  -63.921
   296    5   0.4810  -0.1082   4.0403  0.02405   1.4302E-04 -2.5919E-04  2.9603E-04  -61.111
   297    5   0.4810  -0.0842   4.0403  0.02405   1.7608E-04 -3.1195E-04  3.5822E-04  -60.557
   298    5   0.4810  -0.0601   4.0403  0.02405   2.0227E-04 -3.2998E-04  3.8703E-04  -58.493
   299    5   0.4810  -0.0361   4.0403  0.02405   2.3351E-04 -3.7162E-04  4.3889E-04  -57.857
   300    5   0.4810  -0.0120   4.0403  0.02405   2.5715E-04 -3.8610E-04  4.6390E-04  -56.336
   301    5   0.4810   0.0120   4.0403  0.02405   2.7938E-04 -4.1324E-04  4.9882E-04  -55.938
   302    5   0.4810   0.0361   4.0403  0.02405   2.9751E-04 -4.2220E-04  5.1649E-04  -54.828
   303    5   0.4810   0.0601   4.0403  0.02405   3.0401E-04 -4.2987E-04  5.2651E-04  -54.731
   304    5   0.4810   0.0842   4.0403  0.02405   3.1372E-04 -4.3072E-04  5.3286E-04  -53.932
   305    5   0.4810   0.1082   4.0403  0.02405   2.9877E-04 -4.1317E-04  5.0987E-04  -54.128
   306    5   0.4810   0.1323   4.0403  0.02405   2.9756E-04 -4.0292E-04  5.0089E-04  -53.554
   307    5   0.4810   0.1563   4.0403  0.02405   2.5654E-04 -3.5335E-04  4.3666E-04  -54.020
   308    5   0.4810   0.1804   4.0403  0.02405   2.4210E-04 -3.2796E-04  4.0764E-04  -53.565
   309    5   0.4810   0.2044   4.0403  0.02405   1.6636E-04 -2.3055E-04  2.8431E-04  -54.186
   310    5   0.4810   0.2285   4.0403  0.02405   1.3193E-04 -1.7749E-04  2.2115E-04  -53.376
   311    5   0.4810  -0.2285   4.0884  0.02405   2.9333E-05 -3.4398E-05  4.5207E-05  -49.544
   312    5   0.4810  -0.2044   4.0884  0.02405   7.4076E-05 -8.2166E-05  1.1063E-04  -47.964
   313    5   0.4810  -0.1804   4.0884  0.02405   7.5192E-05 -2.2314E-04  2.3547E-04  -71.378
   314    5   0.4810  -0.1563   4.0884  0.02405   1.1678E-04 -2.5915E-04  2.8425E-04  -65.743
   315    5   0.4810  -0.1323   4.0884  0.02405   1.4083E-04 -3.5006E-04  3.7733E-04  -68.085
   316    5   0.4810  -0.1082   4.0884  0.02405   1.8455E-04 -3.8238E-04  4.2458E-04  -64.236
   317    5   0.4810  -0.0842   4.0884  0.02405   2.1329E-04 -4.4990E-04  4.9790E-04  -64.636
   318    5   0.4810  -0.0601   4.0884  0.02405   2.5671E-04 -4.7805E-04  5.4261E-04  -61.764
   319    5   0.4810  -0.0361   4.0884  0.02405   2.8102E-04 -5.2560E-04  5.9601E-04  -61.868
   320    5   0.4810  -0.0120   4.0884  0.02405   3.2024E-04 -5.4754E-04  6.3432E-04  -59.678
   321    5   0.4810   0.0120   4.0884  0.02405   3.3259E-04 -5.7265E-04  6.6223E-04  -59.853
   322    5   0.4810   0.0361   4.0884  0.02405   3.6313E-04 -5.8530E-04  6.8880E-04  -58.184
   323    5   0.4810   0.0601   4.0884  0.02405   3.5683E-04 -5.8317E-04  6.8368E-04  -58.538
   324    5   0.4810   0.0842   4.0884  0.02405   3.7444E-04 -5.8286E-04  6.9277E-04  -57.282
   325    5   0.4810   0.1082   4.0884  0.02405   3.4387E-04 -5.4735E-04  6.4640E-04  -57.862
   326    5   0.4810   0.1323   4.0884  0.02405   3.4514E-04 -5.3018E-04  6.3262E-04  -56.937
   327    5   0.4810   0.1563   4.0884  0.02405   2.8546E-04 -4.5331E-04  5.3570E-04  -57.800
   328    5   0.4810   0.1804   4.0884  0.02405   2.6791E-04 -4.1491E-04  4.9389E-04  -57.150
   329    5   0.4810   0.2044   4.0884  0.02405   1.7405E-04 -2.8463E-04  3.3363E-04  -58.554
   330    5   0.4810   0.2285   4.0884  0.02405   1.3160E-04 -2.1277E-04  2.5018E-04  -58.263



                                        - - - POWER BUDGET - - -

                                           INPUT POWER   = 8.0390E-03 WATTS
                                           RADIATED POWER= 7.8520E-03 WATTS
                                           STRUCTURE LOSS= 1.8702E-04 WATTS
                                           NETWORK LOSS  = 0.0000E+00 WATTS
                                           EFFICIENCY    =  97.67 PERCENT



                                                - - - RADIATION PATTERNS - - -

  - - ANGLES - -           - POWER GAINS -       - - - POLARIZATION - - -    - - - E(THETA) - - -    - - - E(PHI) - - -
  THETA     PHI        VERT.   HOR.    TOTAL      AXIAL     TILT   SENSE     MAGNITUDE    PHASE      MAGNITUDE    PHASE 
 DEGREES  DEGREES       DB      DB      DB        RATIO     DEG.              VOLTS/M    DEGREES      VOLTS/M    DEGREES
   85.00    90.00     -19.88   12.46   12.46    0.00385   -88.63  RIGHT     7.04183E-02    14.82    2.91491E+00  -156.00






 ***** DATA CARD NO.  8   EN   0     1     1  1000  8.50000E+01  9.00000E+01  0.00000E+00  0.00000E+00  0.00000E+00  0.00000E+00

 RUN TIME =     0.484
