1



                                 *********************************************

                                    NUMERICAL ELECTROMAGNETICS CODE (NEC-2D)

                                 *********************************************




                                     - - - - COMMENTS - - - -


                          No comments specified                                                      
                                                                                                     




                                 - - - STRUCTURE SPECIFICATION - - -

                                     COORDINATES MUST BE INPUT IN
                                     METERS OR BE SCALED TO METERS
                                     BEFORE STRUCTURE INPUT IS ENDED


  WIRE                                                                               NO. OF    FIRST  LAST     TAG
  NO.        X1         Y1         Z1          X2         Y2         Z2      RADIUS   SEG.     SEG.   SEG.     NO.
     1    0.08000    0.00000    0.00000     0.07900    0.01400    0.00200    0.00400      1        1     1       1
     2    0.07900    0.01400    0.00200     0.07500    0.02700    0.00400    0.00400      1        2     2       1
     3    0.07500    0.02700    0.00400     0.06900    0.04000    0.00700    0.00400      1        3     3       1
     4    0.06900    0.04000    0.00700     0.06100    0.05200    0.00900    0.00400      1        4     4       1
     5    0.06100    0.05200    0.00900     0.05200    0.06100    0.01100    0.00400      1        5     5       1
     6    0.05200    0.06100    0.01100     0.04000    0.06900    0.01300    0.00400      1        6     6       1
     7    0.04000    0.06900    0.01300     0.02700    0.07500    0.01500    0.00400      1        7     7       1
     8    0.02700    0.07500    0.01500     0.01400    0.07900    0.01800    0.00400      1        8     8       1
     9    0.01400    0.07900    0.01800     0.00000    0.08000    0.02000    0.00400      1        9     9       1
    10    0.00000    0.08000    0.02000    -0.01400    0.07900    0.02200    0.00400      1       10    10       1
    11   -0.01400    0.07900    0.02200    -0.02700    0.07500    0.02400    0.00400      1       11    11       1
    12   -0.02700    0.07500    0.02400    -0.04000    0.06900    0.02700    0.00400      1       12    12       1
    13   -0.04000    0.06900    0.02700    -0.05200    0.06100    0.02900    0.00400      1       13    13       1
    14   -0.05200    0.06100    0.02900    -0.06100    0.05200    0.03100    0.00400      1       14    14       1
    15   -0.06100    0.05200    0.03100    -0.06900    0.04000    0.03300    0.00400      1       15    15       1
    16   -0.06900    0.04000    0.03300    -0.07500    0.02700    0.03500    0.00400      1       16    16       1
    17   -0.07500    0.02700    0.03500    -0.07900    0.01400    0.03800    0.00400      1       17    17       1
    18   -0.07900    0.01400    0.03800    -0.08000    0.00000    0.04000    0.00400      1       18    18       1
    19   -0.08000    0.00000    0.04000    -0.07900   -0.01400    0.04200    0.00400      1       19    19       1
    20   -0.07900   -0.01400    0.04200    -0.07500   -0.02700    0.04400    0.00400      1       20    20       1
    21   -0.07500   -0.02700    0.04400    -0.06900   -0.04000    0.04600    0.00400      1       21    21       1
    22   -0.06900   -0.04000    0.04600    -0.06100   -0.05200    0.04900    0.00400      1       22    22       1
    23   -0.06100   -0.05200    0.04900    -0.05200   -0.06100    0.05100    0.00400      1       23    23       1
    24   -0.05200   -0.06100    0.05100    -0.04000   -0.06900    0.05300    0.00400      1       24    24       1
    25   -0.04000   -0.06900    0.05300    -0.02700   -0.07500    0.05500    0.00400      1       25    25       1
    26   -0.02700   -0.07500    0.05500    -0.01400   -0.07900    0.05700    0.00400      1       26    26       1
    27   -0.01400   -0.07900    0.05700     0.00000   -0.08000    0.06000    0.00400      1       27    27       1
    28    0.00000   -0.08000    0.06000     0.01400   -0.07900    0.06200    0.00400      1       28    28       1
    29    0.01400   -0.07900    0.06200     0.02700   -0.07500    0.06400    0.00400      1       29    29       1
    30    0.02700   -0.07500    0.06400     0.04000   -0.06900    0.06600    0.00400      1       30    30       1
    31    0.04000   -0.06900    0.06600     0.05200   -0.06100    0.06800    0.00400      1       31    31       1
    32    0.05200   -0.06100    0.06800     0.06100   -0.05200    0.07100    0.00400      1       32    32       1
    33    0.06100   -0.05200    0.07100     0.06900   -0.04000    0.07300    0.00400      1       33    33       1
    34    0.06900   -0.04000    0.07300     0.07500   -0.02700    0.07500    0.00400      1       34    34       1
    35    0.07500   -0.02700    0.07500     0.07900   -0.01400    0.07700    0.00400      1       35    35       1
    36    0.07900   -0.01400    0.07700     0.08000    0.00000    0.08000    0.00400      1       36    36       1
    37    0.08000    0.00000    0.08000     0.07900    0.01400    0.08200    0.00400      1       37    37       1
    38    0.07900    0.01400    0.08200     0.07500    0.02700    0.08400    0.00400      1       38    38       1
    39    0.07500    0.02700    0.08400     0.06900    0.04000    0.08600    0.00400      1       39    39       1
    40    0.06900    0.04000    0.08600     0.06100    0.05200    0.08800    0.00400      1       40    40       1
    41    0.06100    0.05200    0.08800     0.05200    0.06100    0.09100    0.00400      1       41    41       1
    42    0.05200    0.06100    0.09100     0.04000    0.06900    0.09300    0.00400      1       42    42       1
    43    0.04000    0.06900    0.09300     0.02700    0.07500    0.09500    0.00400      1       43    43       1
    44    0.02700    0.07500    0.09500     0.01400    0.07900    0.09700    0.00400      1       44    44       1
    45    0.01400    0.07900    0.09700     0.00000    0.08000    0.09900    0.00400      1       45    45       1
    46    0.00000    0.08000    0.09900    -0.01400    0.07900    0.10200    0.00400      1       46    46       1
    47   -0.01400    0.07900    0.10200    -0.02700    0.07500    0.10400    0.00400      1       47    47       1
    48   -0.02700    0.07500    0.10400    -0.04000    0.06900    0.10600    0.00400      1       48    48       1
    49   -0.04000    0.06900    0.10600    -0.05200    0.06100    0.10800    0.00400      1       49    49       1
    50   -0.05200    0.06100    0.10800    -0.06100    0.05200    0.11000    0.00400      1       50    50       1
    51   -0.06100    0.05200    0.11000    -0.06900    0.04000    0.11300    0.00400      1       51    51       1
    52   -0.06900    0.04000    0.11300    -0.07500    0.02700    0.11500    0.00400      1       52    52       1
    53   -0.07500    0.02700    0.11500    -0.07900    0.01400    0.11700    0.00400      1       53    53       1
    54   -0.07900    0.01400    0.11700    -0.08000    0.00000    0.11900    0.00400      1       54    54       1
    55   -0.08000    0.00000    0.11900    -0.07900   -0.01400    0.12100    0.00400      1       55    55       1
    56   -0.07900   -0.01400    0.12100    -0.07500   -0.02700    0.12400    0.00400      1       56    56       1
    57   -0.07500   -0.02700    0.12400    -0.06900   -0.04000    0.12600    0.00400      1       57    57       1
    58   -0.06900   -0.04000    0.12600    -0.06100   -0.05200    0.12800    0.00400      1       58    58       1
    59   -0.06100   -0.05200    0.12800    -0.05200   -0.06100    0.13000    0.00400      1       59    59       1
    60   -0.05200   -0.06100    0.13000    -0.04000   -0.06900    0.13300    0.00400      1       60    60       1
    61   -0.04000   -0.06900    0.13300    -0.02700   -0.07500    0.13500    0.00400      1       61    61       1
    62   -0.02700   -0.07500    0.13500    -0.01400   -0.07900    0.13700    0.00400      1       62    62       1
    63   -0.01400   -0.07900    0.13700     0.00000   -0.08000    0.13900    0.00400      1       63    63       1
    64    0.00000   -0.08000    0.13900     0.01400   -0.07900    0.14100    0.00400      1       64    64       1
    65    0.01400   -0.07900    0.14100     0.02700   -0.07500    0.14400    0.00400      1       65    65       1
    66    0.02700   -0.07500    0.14400     0.04000   -0.06900    0.14600    0.00400      1       66    66       1
    67    0.04000   -0.06900    0.14600     0.05200   -0.06100    0.14800    0.00400      1       67    67       1
    68    0.05200   -0.06100    0.14800     0.06100   -0.05200    0.15000    0.00400      1       68    68       1
    69    0.06100   -0.05200    0.15000     0.06900   -0.04000    0.15200    0.00400      1       69    69       1
    70    0.06900   -0.04000    0.15200     0.07500   -0.02700    0.15500    0.00400      1       70    70       1
    71    0.07500   -0.02700    0.15500     0.07900   -0.01400    0.15700    0.00400      1       71    71       1
    72    0.07900   -0.01400    0.15700     0.08000    0.00000    0.15900    0.00400      1       72    72       1
    73    0.07300    0.00000    0.08200     0.07300    0.00700    0.08200    0.00100      1       73    73     999
    74    0.07300    0.00700    0.08200     0.07100    0.01300    0.08200    0.00100      1       74    74       4
    75    0.07100    0.01300    0.08200     0.06800    0.01900    0.08200    0.00100      1       75    75       4
    76    0.06800    0.01900    0.08200     0.06400    0.02500    0.08200    0.00100      1       76    76       4
    77    0.06400    0.02500    0.08200     0.05900    0.03000    0.08200    0.00100      1       77    77       4
    78    0.05900    0.03000    0.08200     0.05400    0.03400    0.08200    0.00100      1       78    78       4
    79    0.05400    0.03400    0.08200     0.04800    0.03700    0.08200    0.00100      1       79    79       4
    80    0.04800    0.03700    0.08200     0.04100    0.03800    0.08200    0.00100      1       80    80       4
    81    0.04100    0.03800    0.08200     0.03400    0.03900    0.08200    0.00100      1       81    81       4
    82    0.03400    0.03900    0.08200     0.02700    0.03800    0.08200    0.00100      1       82    82       4
    83    0.02700    0.03800    0.08200     0.02100    0.03700    0.08200    0.00100      1       83    83       4
    84    0.02100    0.03700    0.08200     0.01500    0.03400    0.08200    0.00100      1       84    84       4
    85    0.01500    0.03400    0.08200     0.00900    0.03000    0.08200    0.00100      1       85    85       4
    86    0.00900    0.03000    0.08200     0.00400    0.02500    0.08200    0.00100      1       86    86       4
    87    0.00400    0.02500    0.08200     0.00000    0.01900    0.08200    0.00100      1       87    87       4
    88    0.00000    0.01900    0.08200    -0.00200    0.01300    0.08200    0.00100      1       88    88       4
    89   -0.00200    0.01300    0.08200    -0.00400    0.00700    0.08200    0.00100      1       89    89       4
    90   -0.00400    0.00700    0.08200    -0.00500    0.00000    0.08200    0.00100      1       90    90       4
    91   -0.00500    0.00000    0.08200    -0.00400   -0.00700    0.08200    0.00100      1       91    91       4
    92   -0.00400   -0.00700    0.08200    -0.00200   -0.01300    0.08200    0.00100      1       92    92       4
    93   -0.00200   -0.01300    0.08200     0.00000   -0.01900    0.08200    0.00100      1       93    93       4
    94    0.00000   -0.01900    0.08200     0.00400   -0.02500    0.08200    0.00100      1       94    94       4
    95    0.00400   -0.02500    0.08200     0.00900   -0.03000    0.08200    0.00100      1       95    95       4
    96    0.00900   -0.03000    0.08200     0.01500   -0.03400    0.08200    0.00100      1       96    96       4
    97    0.01500   -0.03400    0.08200     0.02100   -0.03700    0.08200    0.00100      1       97    97       4
    98    0.02100   -0.03700    0.08200     0.02700   -0.03800    0.08200    0.00100      1       98    98       4
    99    0.02700   -0.03800    0.08200     0.03400   -0.03900    0.08200    0.00100      1       99    99       4
   100    0.03400   -0.03900    0.08200     0.04100   -0.03800    0.08200    0.00100      1      100   100       4
   101    0.04100   -0.03800    0.08200     0.04800   -0.03700    0.08200    0.00100      1      101   101       4
   102    0.04800   -0.03700    0.08200     0.05400   -0.03400    0.08200    0.00100      1      102   102       4
   103    0.05400   -0.03400    0.08200     0.05900   -0.03000    0.08200    0.00100      1      103   103       4
   104    0.05900   -0.03000    0.08200     0.06400   -0.02500    0.08200    0.00100      1      104   104       4
   105    0.06400   -0.02500    0.08200     0.06800   -0.02000    0.08200    0.00100      1      105   105       4
   106    0.06800   -0.02000    0.08200     0.07100   -0.01300    0.08200    0.00100      1      106   106       4
   107    0.07100   -0.01300    0.08200     0.07300   -0.00700    0.08200    0.00100      1      107   107       4
   108    0.07300   -0.00700    0.08200     0.07300    0.00000    0.08200    0.00100      1      108   108       4
   109    0.08000    0.00000    0.29900     0.07900   -0.01400    0.30100    0.00400      1      109   109       2
   110    0.07900   -0.01400    0.30100     0.07500   -0.02700    0.30300    0.00400      1      110   110       2
   111    0.07500   -0.02700    0.30300     0.06900   -0.04000    0.30600    0.00400      1      111   111       2
   112    0.06900   -0.04000    0.30600     0.06100   -0.05200    0.30800    0.00400      1      112   112       2
   113    0.06100   -0.05200    0.30800     0.05200   -0.06100    0.31000    0.00400      1      113   113       2
   114    0.05200   -0.06100    0.31000     0.04000   -0.06900    0.31200    0.00400      1      114   114       2
   115    0.04000   -0.06900    0.31200     0.02700   -0.07500    0.31400    0.00400      1      115   115       2
   116    0.02700   -0.07500    0.31400     0.01400   -0.07900    0.31700    0.00400      1      116   116       2
   117    0.01400   -0.07900    0.31700     0.00000   -0.08000    0.31900    0.00400      1      117   117       2
   118    0.00000   -0.08000    0.31900    -0.01400   -0.07900    0.32100    0.00400      1      118   118       2
   119   -0.01400   -0.07900    0.32100    -0.02700   -0.07500    0.32300    0.00400      1      119   119       2
   120   -0.02700   -0.07500    0.32300    -0.04000   -0.06900    0.32600    0.00400      1      120   120       2
   121   -0.04000   -0.06900    0.32600    -0.05200   -0.06100    0.32800    0.00400      1      121   121       2
   122   -0.05200   -0.06100    0.32800    -0.06100   -0.05200    0.33000    0.00400      1      122   122       2
   123   -0.06100   -0.05200    0.33000    -0.06900   -0.04000    0.33200    0.00400      1      123   123       2
   124   -0.06900   -0.04000    0.33200    -0.07500   -0.02700    0.33400    0.00400      1      124   124       2
   125   -0.07500   -0.02700    0.33400    -0.07900   -0.01400    0.33700    0.00400      1      125   125       2
   126   -0.07900   -0.01400    0.33700    -0.08000    0.00000    0.33900    0.00400      1      126   126       2
   127   -0.08000    0.00000    0.33900    -0.07900    0.01400    0.34100    0.00400      1      127   127       2
   128   -0.07900    0.01400    0.34100    -0.07500    0.02700    0.34300    0.00400      1      128   128       2
   129   -0.07500    0.02700    0.34300    -0.06900    0.04000    0.34500    0.00400      1      129   129       2
   130   -0.06900    0.04000    0.34500    -0.06100    0.05200    0.34800    0.00400      1      130   130       2
   131   -0.06100    0.05200    0.34800    -0.05200    0.06100    0.35000    0.00400      1      131   131       2
   132   -0.05200    0.06100    0.35000    -0.04000    0.06900    0.35200    0.00400      1      132   132       2
   133   -0.04000    0.06900    0.35200    -0.02700    0.07500    0.35400    0.00400      1      133   133       2
   134   -0.02700    0.07500    0.35400    -0.01400    0.07900    0.35600    0.00400      1      134   134       2
   135   -0.01400    0.07900    0.35600     0.00000    0.08000    0.35900    0.00400      1      135   135       2
   136    0.00000    0.08000    0.35900     0.01400    0.07900    0.36100    0.00400      1      136   136       2
   137    0.01400    0.07900    0.36100     0.02700    0.07500    0.36300    0.00400      1      137   137       2
   138    0.02700    0.07500    0.36300     0.04000    0.06900    0.36500    0.00400      1      138   138       2
   139    0.04000    0.06900    0.36500     0.05200    0.06100    0.36700    0.00400      1      139   139       2
   140    0.05200    0.06100    0.36700     0.06100    0.05200    0.37000    0.00400      1      140   140       2
   141    0.06100    0.05200    0.37000     0.06900    0.04000    0.37200    0.00400      1      141   141       2
   142    0.06900    0.04000    0.37200     0.07500    0.02700    0.37400    0.00400      1      142   142       2
   143    0.07500    0.02700    0.37400     0.07900    0.01400    0.37600    0.00400      1      143   143       2
   144    0.07900    0.01400    0.37600     0.08000    0.00000    0.37900    0.00400      1      144   144       2
   145    0.08000    0.00000    0.37900     0.07900   -0.01400    0.38100    0.00400      1      145   145       2
   146    0.07900   -0.01400    0.38100     0.07500   -0.02700    0.38300    0.00400      1      146   146       2
   147    0.07500   -0.02700    0.38300     0.06900   -0.04000    0.38500    0.00400      1      147   147       2
   148    0.06900   -0.04000    0.38500     0.06100   -0.05200    0.38700    0.00400      1      148   148       2
   149    0.06100   -0.05200    0.38700     0.05200   -0.06100    0.39000    0.00400      1      149   149       2
   150    0.05200   -0.06100    0.39000     0.04000   -0.06900    0.39200    0.00400      1      150   150       2
   151    0.04000   -0.06900    0.39200     0.02700   -0.07500    0.39400    0.00400      1      151   151       2
   152    0.02700   -0.07500    0.39400     0.01400   -0.07900    0.39600    0.00400      1      152   152       2
   153    0.01400   -0.07900    0.39600     0.00000   -0.08000    0.39800    0.00400      1      153   153       2
   154    0.00000   -0.08000    0.39800    -0.01400   -0.07900    0.40100    0.00400      1      154   154       2
   155   -0.01400   -0.07900    0.40100    -0.02700   -0.07500    0.40300    0.00400      1      155   155       2
   156   -0.02700   -0.07500    0.40300    -0.04000   -0.06900    0.40500    0.00400      1      156   156       2
   157   -0.04000   -0.06900    0.40500    -0.05200   -0.06100    0.40700    0.00400      1      157   157       2
   158   -0.05200   -0.06100    0.40700    -0.06100   -0.05200    0.40900    0.00400      1      158   158       2
   159   -0.06100   -0.05200    0.40900    -0.06900   -0.04000    0.41200    0.00400      1      159   159       2
   160   -0.06900   -0.04000    0.41200    -0.07500   -0.02700    0.41400    0.00400      1      160   160       2
   161   -0.07500   -0.02700    0.41400    -0.07900   -0.01400    0.41600    0.00400      1      161   161       2
   162   -0.07900   -0.01400    0.41600    -0.08000    0.00000    0.41800    0.00400      1      162   162       2
   163   -0.08000    0.00000    0.41800    -0.07900    0.01400    0.42000    0.00400      1      163   163       2
   164   -0.07900    0.01400    0.42000    -0.07500    0.02700    0.42300    0.00400      1      164   164       2
   165   -0.07500    0.02700    0.42300    -0.06900    0.04000    0.42500    0.00400      1      165   165       2
   166   -0.06900    0.04000    0.42500    -0.06100    0.05200    0.42700    0.00400      1      166   166       2
   167   -0.06100    0.05200    0.42700    -0.05200    0.06100    0.42900    0.00400      1      167   167       2
   168   -0.05200    0.06100    0.42900    -0.04000    0.06900    0.43200    0.00400      1      168   168       2
   169   -0.04000    0.06900    0.43200    -0.02700    0.07500    0.43400    0.00400      1      169   169       2
   170   -0.02700    0.07500    0.43400    -0.01400    0.07900    0.43600    0.00400      1      170   170       2
   171   -0.01400    0.07900    0.43600     0.00000    0.08000    0.43800    0.00400      1      171   171       2
   172    0.00000    0.08000    0.43800     0.01400    0.07900    0.44000    0.00400      1      172   172       2
   173    0.01400    0.07900    0.44000     0.02700    0.07500    0.44300    0.00400      1      173   173       2
   174    0.02700    0.07500    0.44300     0.04000    0.06900    0.44500    0.00400      1      174   174       2
   175    0.04000    0.06900    0.44500     0.05200    0.06100    0.44700    0.00400      1      175   175       2
   176    0.05200    0.06100    0.44700     0.06100    0.05200    0.44900    0.00400      1      176   176       2
   177    0.06100    0.05200    0.44900     0.06900    0.04000    0.45100    0.00400      1      177   177       2
   178    0.06900    0.04000    0.45100     0.07500    0.02700    0.45400    0.00400      1      178   178       2
   179    0.07500    0.02700    0.45400     0.07900    0.01400    0.45600    0.00400      1      179   179       2
   180    0.07900    0.01400    0.45600     0.08000    0.00000    0.45800    0.00400      1      180   180       2
   181    0.08000    0.00000    0.15900     0.08000    0.00000    0.29900    0.00400      2      181   182       3
      THE STRUCTURE HAS BEEN MOVED, MOVE DATA CARD IS -
        0    0   0.00000   0.00000   0.00000   0.00000   0.00000   8.00000   0.00000

   GROUND PLANE SPECIFIED.

   WHERE WIRE ENDS TOUCH GROUND, CURRENT WILL BE INTERPOLATED TO IMAGE IN GROUND PLANE.


   TOTAL SEGMENTS USED=  182     NO. SEG. IN A SYMMETRIC CELL=  182     SYMMETRY FLAG=  0


         - MULTIPLE WIRE JUNCTIONS -
 JUNCTION    SEGMENTS  (- FOR END 1, + FOR END 2)
  NONE




                                 - - - - SEGMENTATION DATA - - - -

                                        COORDINATES IN METERS

                         I+ AND I- INDICATE THE SEGMENTS BEFORE AND AFTER I


  SEG.   COORDINATES OF SEG. CENTER     SEG.     ORIENTATION ANGLES    WIRE    CONNECTION DATA   TAG
  NO.       X         Y         Z       LENGTH     ALPHA     BETA      RADIUS    I-   I    I+    NO.
     1   0.07950   0.00700   8.00100   0.01418    8.10972  94.08562   0.00400     0    1    2      1
     2   0.07700   0.02050   8.00300   0.01375    8.36499 107.10273   0.00400     1    2    3      1
     3   0.07200   0.03350   8.00550   0.01463   11.83394 114.77514   0.00400     2    3    4      1
     4   0.06500   0.04600   8.00800   0.01456    7.89514 123.69007   0.00400     3    4    5      1
     5   0.05650   0.05650   8.01000   0.01288    8.93014 135.00000   0.00400     4    5    6      1
     6   0.04600   0.06500   8.01200   0.01456    7.89514 146.30993   0.00400     5    6    7      1
     7   0.03350   0.07200   8.01400   0.01446    7.95197 155.22486   0.00400     6    7    8      1
     8   0.02050   0.07700   8.01650   0.01393   12.43826 162.89727   0.00400     7    8    9      1
     9   0.00700   0.07950   8.01900   0.01418    8.10972 175.91438   0.00400     8    9   10      1
    10  -0.00700   0.07950   8.02100   0.01418    8.10972-175.91438   0.00400     9   10   11      1
    11  -0.02050   0.07700   8.02300   0.01375    8.36499-162.89727   0.00400    10   11   12      1
    12  -0.03350   0.07200   8.02550   0.01463   11.83394-155.22486   0.00400    11   12   13      1
    13  -0.04600   0.06500   8.02800   0.01456    7.89514-146.30993   0.00400    12   13   14      1
    14  -0.05650   0.05650   8.03000   0.01288    8.93014-135.00000   0.00400    13   14   15      1
    15  -0.06500   0.04600   8.03200   0.01456    7.89514-123.69007   0.00400    14   15   16      1
    16  -0.07200   0.03350   8.03400   0.01446    7.95197-114.77514   0.00400    15   16   17      1
    17  -0.07700   0.02050   8.03650   0.01393   12.43826-107.10273   0.00400    16   17   18      1
    18  -0.07950   0.00700   8.03900   0.01418    8.10972 -94.08562   0.00400    17   18   19      1
    19  -0.07950  -0.00700   8.04100   0.01418    8.10972 -85.91438   0.00400    18   19   20      1
    20  -0.07700  -0.02050   8.04300   0.01375    8.36499 -72.89727   0.00400    19   20   21      1
    21  -0.07200  -0.03350   8.04500   0.01446    7.95197 -65.22486   0.00400    20   21   22      1
    22  -0.06500  -0.04600   8.04750   0.01473   11.75067 -56.30993   0.00400    21   22   23      1
    23  -0.05650  -0.05650   8.05000   0.01288    8.93014 -45.00000   0.00400    22   23   24      1
    24  -0.04600  -0.06500   8.05200   0.01456    7.89514 -33.69007   0.00400    23   24   25      1
    25  -0.03350  -0.07200   8.05400   0.01446    7.95197 -24.77514   0.00400    24   25   26      1
    26  -0.02050  -0.07700   8.05600   0.01375    8.36499 -17.10273   0.00400    25   26   27      1
    27  -0.00700  -0.07950   8.05850   0.01435   12.06492  -4.08562   0.00400    26   27   28      1
    28   0.00700  -0.07950   8.06100   0.01418    8.10972   4.08562   0.00400    27   28   29      1
    29   0.02050  -0.07700   8.06300   0.01375    8.36499  17.10273   0.00400    28   29   30      1
    30   0.03350  -0.07200   8.06500   0.01446    7.95197  24.77514   0.00400    29   30   31      1
    31   0.04600  -0.06500   8.06700   0.01456    7.89514  33.69007   0.00400    30   31   32      1
    32   0.05650  -0.05650   8.06950   0.01308   13.26268  45.00000   0.00400    31   32   33      1
    33   0.06500  -0.04600   8.07200   0.01456    7.89514  56.30993   0.00400    32   33   34      1
    34   0.07200  -0.03350   8.07400   0.01446    7.95197  65.22486   0.00400    33   34   35      1
    35   0.07700  -0.02050   8.07600   0.01375    8.36499  72.89727   0.00400    34   35   36      1
    36   0.07950  -0.00700   8.07850   0.01435   12.06492  85.91438   0.00400    35   36   37      1
    37   0.07950   0.00700   8.08100   0.01418    8.10972  94.08562   0.00400    36   37   38      1
    38   0.07700   0.02050   8.08300   0.01375    8.36499 107.10273   0.00400    37   38   39      1
    39   0.07200   0.03350   8.08500   0.01446    7.95197 114.77514   0.00400    38   39   40      1
    40   0.06500   0.04600   8.08700   0.01456    7.89514 123.69007   0.00400    39   40   41      1
    41   0.05650   0.05650   8.08950   0.01308   13.26268 135.00000   0.00400    40   41   42      1
    42   0.04600   0.06500   8.09200   0.01456    7.89514 146.30993   0.00400    41   42   43      1
    43   0.03350   0.07200   8.09400   0.01446    7.95197 155.22486   0.00400    42   43   44      1
    44   0.02050   0.07700   8.09600   0.01375    8.36499 162.89727   0.00400    43   44   45      1
    45   0.00700   0.07950   8.09800   0.01418    8.10972 175.91438   0.00400    44   45   46      1
    46  -0.00700   0.07950   8.10050   0.01435   12.06492-175.91438   0.00400    45   46   47      1
    47  -0.02050   0.07700   8.10300   0.01375    8.36499-162.89727   0.00400    46   47   48      1
    48  -0.03350   0.07200   8.10500   0.01446    7.95197-155.22486   0.00400    47   48   49      1
    49  -0.04600   0.06500   8.10700   0.01456    7.89514-146.30993   0.00400    48   49   50      1
    50  -0.05650   0.05650   8.10900   0.01288    8.93014-135.00000   0.00400    49   50   51      1
    51  -0.06500   0.04600   8.11150   0.01473   11.75067-123.69007   0.00400    50   51   52      1
    52  -0.07200   0.03350   8.11400   0.01446    7.95197-114.77514   0.00400    51   52   53      1
    53  -0.07700   0.02050   8.11600   0.01375    8.36499-107.10273   0.00400    52   53   54      1
    54  -0.07950   0.00700   8.11800   0.01418    8.10972 -94.08562   0.00400    53   54   55      1
    55  -0.07950  -0.00700   8.12000   0.01418    8.10972 -85.91438   0.00400    54   55   56      1
    56  -0.07700  -0.02050   8.12250   0.01393   12.43826 -72.89727   0.00400    55   56   57      1
    57  -0.07200  -0.03350   8.12500   0.01446    7.95197 -65.22486   0.00400    56   57   58      1
    58  -0.06500  -0.04600   8.12700   0.01456    7.89514 -56.30993   0.00400    57   58   59      1
    59  -0.05650  -0.05650   8.12900   0.01288    8.93014 -45.00000   0.00400    58   59   60      1
    60  -0.04600  -0.06500   8.13150   0.01473   11.75067 -33.69007   0.00400    59   60   61      1
    61  -0.03350  -0.07200   8.13400   0.01446    7.95197 -24.77514   0.00400    60   61   62      1
    62  -0.02050  -0.07700   8.13600   0.01375    8.36499 -17.10273   0.00400    61   62   63      1
    63  -0.00700  -0.07950   8.13800   0.01418    8.10972  -4.08562   0.00400    62   63   64      1
    64   0.00700  -0.07950   8.14000   0.01418    8.10972   4.08562   0.00400    63   64   65      1
    65   0.02050  -0.07700   8.14250   0.01393   12.43826  17.10273   0.00400    64   65   66      1
    66   0.03350  -0.07200   8.14500   0.01446    7.95197  24.77514   0.00400    65   66   67      1
    67   0.04600  -0.06500   8.14700   0.01456    7.89514  33.69007   0.00400    66   67   68      1
    68   0.05650  -0.05650   8.14900   0.01288    8.93014  45.00000   0.00400    67   68   69      1
    69   0.06500  -0.04600   8.15100   0.01456    7.89514  56.30993   0.00400    68   69   70      1
    70   0.07200  -0.03350   8.15350   0.01463   11.83394  65.22486   0.00400    69   70   71      1
    71   0.07700  -0.02050   8.15600   0.01375    8.36499  72.89727   0.00400    70   71   72      1
    72   0.07950  -0.00700   8.15800   0.01418    8.10972  85.91438   0.00400    71   72  181      1
    73   0.07300   0.00350   8.08200   0.00700    0.00000  90.00000   0.00100   108   73   74    999
    74   0.07200   0.01000   8.08200   0.00632    0.00000 108.43495   0.00100    73   74   75      4
    75   0.06950   0.01600   8.08200   0.00671    0.00000 116.56505   0.00100    74   75   76      4
    76   0.06600   0.02200   8.08200   0.00721    0.00000 123.69007   0.00100    75   76   77      4
    77   0.06150   0.02750   8.08200   0.00707    0.00000 135.00000   0.00100    76   77   78      4
    78   0.05650   0.03200   8.08200   0.00640    0.00000 141.34019   0.00100    77   78   79      4
    79   0.05100   0.03550   8.08200   0.00671    0.00000 153.43495   0.00100    78   79   80      4
    80   0.04450   0.03750   8.08200   0.00707    0.00000 171.86990   0.00100    79   80   81      4
    81   0.03750   0.03850   8.08200   0.00707    0.00000 171.86990   0.00100    80   81   82      4
    82   0.03050   0.03850   8.08200   0.00707    0.00000-171.86990   0.00100    81   82   83      4
    83   0.02400   0.03750   8.08200   0.00608    0.00000-170.53768   0.00100    82   83   84      4
    84   0.01800   0.03550   8.08200   0.00671    0.00000-153.43495   0.00100    83   84   85      4
    85   0.01200   0.03200   8.08200   0.00721    0.00000-146.30993   0.00100    84   85   86      4
    86   0.00650   0.02750   8.08200   0.00707    0.00000-135.00000   0.00100    85   86   87      4
    87   0.00200   0.02200   8.08200   0.00721    0.00000-123.69007   0.00100    86   87   88      4
    88  -0.00100   0.01600   8.08200   0.00632    0.00000-108.43495   0.00100    87   88   89      4
    89  -0.00300   0.01000   8.08200   0.00632    0.00000-108.43495   0.00100    88   89   90      4
    90  -0.00450   0.00350   8.08200   0.00707    0.00000 -98.13010   0.00100    89   90   91      4
    91  -0.00450  -0.00350   8.08200   0.00707    0.00000 -81.86990   0.00100    90   91   92      4
    92  -0.00300  -0.01000   8.08200   0.00632    0.00000 -71.56505   0.00100    91   92   93      4
    93  -0.00100  -0.01600   8.08200   0.00632    0.00000 -71.56505   0.00100    92   93   94      4
    94   0.00200  -0.02200   8.08200   0.00721    0.00000 -56.30993   0.00100    93   94   95      4
    95   0.00650  -0.02750   8.08200   0.00707    0.00000 -45.00000   0.00100    94   95   96      4
    96   0.01200  -0.03200   8.08200   0.00721    0.00000 -33.69007   0.00100    95   96   97      4
    97   0.01800  -0.03550   8.08200   0.00671    0.00000 -26.56505   0.00100    96   97   98      4
    98   0.02400  -0.03750   8.08200   0.00608    0.00000  -9.46232   0.00100    97   98   99      4
    99   0.03050  -0.03850   8.08200   0.00707    0.00000  -8.13010   0.00100    98   99  100      4
   100   0.03750  -0.03850   8.08200   0.00707    0.00000   8.13010   0.00100    99  100  101      4
   101   0.04450  -0.03750   8.08200   0.00707    0.00000   8.13010   0.00100   100  101  102      4
   102   0.05100  -0.03550   8.08200   0.00671    0.00000  26.56505   0.00100   101  102  103      4
   103   0.05650  -0.03200   8.08200   0.00640    0.00000  38.65981   0.00100   102  103  104      4
   104   0.06150  -0.02750   8.08200   0.00707    0.00000  45.00000   0.00100   103  104  105      4
   105   0.06600  -0.02250   8.08200   0.00640    0.00000  51.34019   0.00100   104  105  106      4
   106   0.06950  -0.01650   8.08200   0.00762    0.00000  66.80141   0.00100   105  106  107      4
   107   0.07200  -0.01000   8.08200   0.00632    0.00000  71.56505   0.00100   106  107  108      4
   108   0.07300  -0.00350   8.08200   0.00700    0.00000  90.00000   0.00100   107  108   73      4
   109   0.07950  -0.00700   8.30000   0.01418    8.10972 -94.08562   0.00400   182  109  110      2
   110   0.07700  -0.02050   8.30200   0.01375    8.36499-107.10273   0.00400   109  110  111      2
   111   0.07200  -0.03350   8.30450   0.01463   11.83394-114.77514   0.00400   110  111  112      2
   112   0.06500  -0.04600   8.30700   0.01456    7.89514-123.69007   0.00400   111  112  113      2
   113   0.05650  -0.05650   8.30900   0.01288    8.93014-135.00000   0.00400   112  113  114      2
   114   0.04600  -0.06500   8.31100   0.01456    7.89514-146.30993   0.00400   113  114  115      2
   115   0.03350  -0.07200   8.31300   0.01446    7.95197-155.22486   0.00400   114  115  116      2
   116   0.02050  -0.07700   8.31550   0.01393   12.43826-162.89727   0.00400   115  116  117      2
   117   0.00700  -0.07950   8.31800   0.01418    8.10972-175.91438   0.00400   116  117  118      2
   118  -0.00700  -0.07950   8.32000   0.01418    8.10972 175.91438   0.00400   117  118  119      2
   119  -0.02050  -0.07700   8.32200   0.01375    8.36499 162.89727   0.00400   118  119  120      2
   120  -0.03350  -0.07200   8.32450   0.01463   11.83394 155.22486   0.00400   119  120  121      2
   121  -0.04600  -0.06500   8.32700   0.01456    7.89514 146.30993   0.00400   120  121  122      2
   122  -0.05650  -0.05650   8.32900   0.01288    8.93014 135.00000   0.00400   121  122  123      2
   123  -0.06500  -0.04600   8.33100   0.01456    7.89514 123.69007   0.00400   122  123  124      2
   124  -0.07200  -0.03350   8.33300   0.01446    7.95197 114.77514   0.00400   123  124  125      2
   125  -0.07700  -0.02050   8.33550   0.01393   12.43826 107.10273   0.00400   124  125  126      2
   126  -0.07950  -0.00700   8.33800   0.01418    8.10972  94.08562   0.00400   125  126  127      2
   127  -0.07950   0.00700   8.34000   0.01418    8.10972  85.91438   0.00400   126  127  128      2
   128  -0.07700   0.02050   8.34200   0.01375    8.36499  72.89727   0.00400   127  128  129      2
   129  -0.07200   0.03350   8.34400   0.01446    7.95197  65.22486   0.00400   128  129  130      2
   130  -0.06500   0.04600   8.34650   0.01473   11.75067  56.30993   0.00400   129  130  131      2
   131  -0.05650   0.05650   8.34900   0.01288    8.93014  45.00000   0.00400   130  131  132      2
   132  -0.04600   0.06500   8.35100   0.01456    7.89514  33.69007   0.00400   131  132  133      2
   133  -0.03350   0.07200   8.35300   0.01446    7.95197  24.77514   0.00400   132  133  134      2
   134  -0.02050   0.07700   8.35500   0.01375    8.36499  17.10273   0.00400   133  134  135      2
   135  -0.00700   0.07950   8.35750   0.01435   12.06492   4.08562   0.00400   134  135  136      2
   136   0.00700   0.07950   8.36000   0.01418    8.10972  -4.08562   0.00400   135  136  137      2
   137   0.02050   0.07700   8.36200   0.01375    8.36499 -17.10273   0.00400   136  137  138      2
   138   0.03350   0.07200   8.36400   0.01446    7.95197 -24.77514   0.00400   137  138  139      2
   139   0.04600   0.06500   8.36600   0.01456    7.89514 -33.69007   0.00400   138  139  140      2
   140   0.05650   0.05650   8.36850   0.01308   13.26268 -45.00000   0.00400   139  140  141      2
   141   0.06500   0.04600   8.37100   0.01456    7.89514 -56.30993   0.00400   140  141  142      2
   142   0.07200   0.03350   8.37300   0.01446    7.95197 -65.22486   0.00400   141  142  143      2
   143   0.07700   0.02050   8.37500   0.01375    8.36499 -72.89727   0.00400   142  143  144      2
   144   0.07950   0.00700   8.37750   0.01435   12.06492 -85.91438   0.00400   143  144  145      2
   145   0.07950  -0.00700   8.38000   0.01418    8.10972 -94.08562   0.00400   144  145  146      2
   146   0.07700  -0.02050   8.38200   0.01375    8.36499-107.10273   0.00400   145  146  147      2
   147   0.07200  -0.03350   8.38400   0.01446    7.95197-114.77514   0.00400   146  147  148      2
   148   0.06500  -0.04600   8.38600   0.01456    7.89514-123.69007   0.00400   147  148  149      2
   149   0.05650  -0.05650   8.38850   0.01308   13.26268-135.00000   0.00400   148  149  150      2
   150   0.04600  -0.06500   8.39100   0.01456    7.89514-146.30993   0.00400   149  150  151      2
   151   0.03350  -0.07200   8.39300   0.01446    7.95197-155.22486   0.00400   150  151  152      2
   152   0.02050  -0.07700   8.39500   0.01375    8.36499-162.89727   0.00400   151  152  153      2
   153   0.00700  -0.07950   8.39700   0.01418    8.10972-175.91438   0.00400   152  153  154      2
   154  -0.00700  -0.07950   8.39950   0.01435   12.06492 175.91438   0.00400   153  154  155      2
   155  -0.02050  -0.07700   8.40200   0.01375    8.36499 162.89727   0.00400   154  155  156      2
   156  -0.03350  -0.07200   8.40400   0.01446    7.95197 155.22486   0.00400   155  156  157      2
   157  -0.04600  -0.06500   8.40600   0.01456    7.89514 146.30993   0.00400   156  157  158      2
   158  -0.05650  -0.05650   8.40800   0.01288    8.93014 135.00000   0.00400   157  158  159      2
   159  -0.06500  -0.04600   8.41050   0.01473   11.75067 123.69007   0.00400   158  159  160      2
   160  -0.07200  -0.03350   8.41300   0.01446    7.95197 114.77514   0.00400   159  160  161      2
   161  -0.07700  -0.02050   8.41500   0.01375    8.36499 107.10273   0.00400   160  161  162      2
   162  -0.07950  -0.00700   8.41700   0.01418    8.10972  94.08562   0.00400   161  162  163      2
   163  -0.07950   0.00700   8.41900   0.01418    8.10972  85.91438   0.00400   162  163  164      2
   164  -0.07700   0.02050   8.42150   0.01393   12.43826  72.89727   0.00400   163  164  165      2
   165  -0.07200   0.03350   8.42400   0.01446    7.95197  65.22486   0.00400   164  165  166      2
   166  -0.06500   0.04600   8.42600   0.01456    7.89514  56.30993   0.00400   165  166  167      2
   167  -0.05650   0.05650   8.42800   0.01288    8.93014  45.00000   0.00400   166  167  168      2
   168  -0.04600   0.06500   8.43050   0.01473   11.75067  33.69007   0.00400   167  168  169      2
   169  -0.03350   0.07200   8.43300   0.01446    7.95197  24.77514   0.00400   168  169  170      2
   170  -0.02050   0.07700   8.43500   0.01375    8.36499  17.10273   0.00400   169  170  171      2
   171  -0.00700   0.07950   8.43700   0.01418    8.10972   4.08562   0.00400   170  171  172      2
   172   0.00700   0.07950   8.43900   0.01418    8.10972  -4.08562   0.00400   171  172  173      2
   173   0.02050   0.07700   8.44150   0.01393   12.43826 -17.10273   0.00400   172  173  174      2
   174   0.03350   0.07200   8.44400   0.01446    7.95197 -24.77514   0.00400   173  174  175      2
   175   0.04600   0.06500   8.44600   0.01456    7.89514 -33.69007   0.00400   174  175  176      2
   176   0.05650   0.05650   8.44800   0.01288    8.93014 -45.00000   0.00400   175  176  177      2
   177   0.06500   0.04600   8.45000   0.01456    7.89514 -56.30993   0.00400   176  177  178      2
   178   0.07200   0.03350   8.45250   0.01463   11.83394 -65.22486   0.00400   177  178  179      2
   179   0.07700   0.02050   8.45500   0.01375    8.36499 -72.89727   0.00400   178  179  180      2
   180   0.07950   0.00700   8.45700   0.01418    8.10972 -85.91438   0.00400   179  180    0      2
   181   0.08000   0.00000   8.19400   0.07000   90.00000   0.00000   0.00400    72  181  182      3
   182   0.08000   0.00000   8.26400   0.07000   90.00000   0.00000   0.00400   181  182  109      3






 ***** DATA CARD NO.  1   GN   2     0     0     0  1.10000E+01  1.00000E-02  0.00000E+00  0.00000E+00  0.00000E+00  0.00000E+00
 ***** DATA CARD NO.  2   EK   0     0     0     0  0.00000E+00  0.00000E+00  0.00000E+00  0.00000E+00  0.00000E+00  0.00000E+00
 ***** DATA CARD NO.  3   LD   5     0     0     0  5.80000E+07  0.00000E+00  0.00000E+00  0.00000E+00  0.00000E+00  0.00000E+00
 ***** DATA CARD NO.  4   EX   0   999     1     0  1.00000E+00  0.00000E+00  0.00000E+00  0.00000E+00  0.00000E+00  0.00000E+00
 ***** DATA CARD NO.  5   FR   0     1     0     0  1.44200E+02  0.00000E+00  0.00000E+00  0.00000E+00  0.00000E+00  0.00000E+00
 ***** DATA CARD NO.  6   RP   0     1     1  1000  8.50000E+01  9.00000E+01  0.00000E+00  0.00000E+00  0.00000E+00  0.00000E+00




                                 - - - - - - FREQUENCY - - - - - -

                                    FREQUENCY= 1.4420E+02 MHZ
                                    WAVELENGTH= 2.0791E+00 METERS




                    APPROXIMATE INTEGRATION EMPLOYED FOR SEGMENTS MORE THAN   1.000 WAVELENGTHS APART

                    THE EXTENDED THIN WIRE KERNEL WILL BE USED



                               - - - STRUCTURE IMPEDANCE LOADING - - -


       LOCATION          RESISTANCE   INDUCTANCE  CAPACITANCE       IMPEDANCE (OHMS)     CONDUCTIVITY    TYPE
    ITAG FROM THRU          OHMS        HENRYS       FARADS        REAL      IMAGINARY    MHOS/METER

     ALL                                                                                 5.8000E+07     WIRE  



                                  - - - ANTENNA ENVIRONMENT - - -

                                        FINITE GROUND.  SOMMERFELD SOLUTION
                                        RELATIVE DIELECTRIC CONST.= 11.000
                                        CONDUCTIVITY= 1.000E-02 MHOS/METER
                                        COMPLEX DIELECTRIC CONSTANT= 1.10000E+01-1.24660E+00



                                - - - MATRIX TIMING - - -

                        FILL=    0.172 SEC.,  FACTOR=    0.000 SEC.



                                          - - - ANTENNA INPUT PARAMETERS - - -

   TAG   SEG.    VOLTAGE (VOLTS)         CURRENT (AMPS)         IMPEDANCE (OHMS)        ADMITTANCE (MHOS)      POWER
   NO.   NO.    REAL        IMAG.       REAL        IMAG.       REAL        IMAG.       REAL        IMAG.     (WATTS)
   999    73 1.00000E+00 0.00000E+00 1.19404E-04-7.10420E-03 2.36519E+00 1.40722E+02 1.19404E-04-7.10420E-03 5.97019E-05



                             - - - CURRENTS AND LOCATION - - -

                                 DISTANCES IN WAVELENGTHS


  SEG.  TAG    COORD. OF SEG. CENTER     SEG.            - - - CURRENT (AMPS) - - -
  NO.   NO.     X        Y        Z      LENGTH     REAL        IMAG.       MAG.        PHASE
     1    1   0.0382   0.0034   3.8484  0.00682  -1.8107E-05  2.2651E-04  2.2723E-04   94.570
     2    1   0.0370   0.0099   3.8493  0.00661  -3.6615E-05  4.5961E-04  4.6107E-04   94.555
     3    1   0.0346   0.0161   3.8505  0.00704  -5.3068E-05  6.6868E-04  6.7079E-04   94.538
     4    1   0.0313   0.0221   3.8517  0.00700  -6.9134E-05  8.7418E-04  8.7691E-04   94.522
     5    1   0.0272   0.0272   3.8527  0.00620  -8.3647E-05  1.0614E-03  1.0647E-03   94.506
     6    1   0.0221   0.0313   3.8537  0.00700  -9.7729E-05  1.2442E-03  1.2481E-03   94.491
     7    1   0.0161   0.0346   3.8546  0.00695  -1.1219E-04  1.4331E-03  1.4375E-03   94.476
     8    1   0.0099   0.0370   3.8558  0.00670  -1.2597E-04  1.6140E-03  1.6189E-03   94.463
     9    1   0.0034   0.0382   3.8570  0.00682  -1.3941E-04  1.7906E-03  1.7960E-03   94.452
    10    1  -0.0034   0.0382   3.8580  0.00682  -1.5267E-04  1.9650E-03  1.9709E-03   94.443
    11    1  -0.0099   0.0370   3.8590  0.00661  -1.6549E-04  2.1337E-03  2.1401E-03   94.435
    12    1  -0.0161   0.0346   3.8602  0.00704  -1.7826E-04  2.3012E-03  2.3081E-03   94.429
    13    1  -0.0221   0.0313   3.8614  0.00700  -1.9126E-04  2.4706E-03  2.4780E-03   94.427
    14    1  -0.0272   0.0272   3.8623  0.00620  -2.0329E-04  2.6266E-03  2.6345E-03   94.426
    15    1  -0.0313   0.0221   3.8633  0.00700  -2.1515E-04  2.7792E-03  2.7875E-03   94.427
    16    1  -0.0346   0.0161   3.8643  0.00695  -2.2749E-04  2.9361E-03  2.9449E-03   94.430
    17    1  -0.0370   0.0099   3.8655  0.00670  -2.3935E-04  3.0853E-03  3.0946E-03   94.436
    18    1  -0.0382   0.0034   3.8667  0.00682  -2.5105E-04  3.2301E-03  3.2399E-03   94.444
    19    1  -0.0382  -0.0034   3.8676  0.00682  -2.6265E-04  3.3715E-03  3.3817E-03   94.455
    20    1  -0.0370  -0.0099   3.8686  0.00661  -2.7389E-04  3.5062E-03  3.5169E-03   94.467
    21    1  -0.0346  -0.0161   3.8695  0.00695  -2.8502E-04  3.6371E-03  3.6483E-03   94.481
    22    1  -0.0313  -0.0221   3.8707  0.00709  -2.9627E-04  3.7670E-03  3.7786E-03   94.497
    23    1  -0.0272  -0.0272   3.8719  0.00620  -3.0680E-04  3.8857E-03  3.8978E-03   94.514
    24    1  -0.0221  -0.0313   3.8729  0.00700  -3.1699E-04  3.9984E-03  4.0109E-03   94.533
    25    1  -0.0161  -0.0346   3.8739  0.00695  -3.2740E-04  4.1108E-03  4.1238E-03   94.554
    26    1  -0.0099  -0.0370   3.8748  0.00661  -3.3712E-04  4.2133E-03  4.2267E-03   94.575
    27    1  -0.0034  -0.0382   3.8760  0.00690  -3.4640E-04  4.3087E-03  4.3226E-03   94.596
    28    1   0.0034  -0.0382   3.8772  0.00682  -3.5546E-04  4.3992E-03  4.4135E-03   94.620
    29    1   0.0099  -0.0370   3.8782  0.00661  -3.6380E-04  4.4797E-03  4.4944E-03   94.643
    30    1   0.0161  -0.0346   3.8792  0.00695  -3.7159E-04  4.5514E-03  4.5666E-03   94.667
    31    1   0.0221  -0.0313   3.8801  0.00700  -3.7887E-04  4.6143E-03  4.6298E-03   94.694
    32    1   0.0272  -0.0272   3.8813  0.00629  -3.8504E-04  4.6626E-03  4.6785E-03   94.721
    33    1   0.0313  -0.0221   3.8825  0.00700  -3.9063E-04  4.6990E-03  4.7152E-03   94.752
    34    1   0.0346  -0.0161   3.8835  0.00695  -3.9552E-04  4.7179E-03  4.7345E-03   94.792
    35    1   0.0370  -0.0099   3.8845  0.00661  -3.9937E-04  4.7143E-03  4.7312E-03   94.842
    36    1   0.0382  -0.0034   3.8857  0.00690  -4.0241E-04  4.6921E-03  4.7093E-03   94.902
    37    1   0.0382   0.0034   3.8869  0.00682  -4.0494E-04  4.6875E-03  4.7050E-03   94.937
    38    1   0.0370   0.0099   3.8878  0.00661  -4.0641E-04  4.7841E-03  4.8013E-03   94.856
    39    1   0.0346   0.0161   3.8888  0.00695  -4.0677E-04  4.8654E-03  4.8823E-03   94.779
    40    1   0.0313   0.0221   3.8897  0.00700  -4.0594E-04  4.9179E-03  4.9346E-03   94.719
    41    1   0.0272   0.0272   3.8909  0.00629  -4.0402E-04  4.9446E-03  4.9611E-03   94.671
    42    1   0.0221   0.0313   3.8921  0.00700  -4.0137E-04  4.9570E-03  4.9732E-03   94.629
    43    1   0.0161   0.0346   3.8931  0.00695  -3.9755E-04  4.9552E-03  4.9711E-03   94.587
    44    1   0.0099   0.0370   3.8941  0.00661  -3.9291E-04  4.9407E-03  4.9563E-03   94.547
    45    1   0.0034   0.0382   3.8950  0.00682  -3.8749E-04  4.9153E-03  4.9306E-03   94.507
    46    1  -0.0034   0.0382   3.8962  0.00690  -3.8118E-04  4.8792E-03  4.8941E-03   94.467
    47    1  -0.0099   0.0370   3.8974  0.00661  -3.7444E-04  4.8362E-03  4.8507E-03   94.427
    48    1  -0.0161   0.0346   3.8984  0.00695  -3.6706E-04  4.7845E-03  4.7986E-03   94.387
    49    1  -0.0221   0.0313   3.8994  0.00700  -3.5888E-04  4.7229E-03  4.7365E-03   94.345
    50    1  -0.0272   0.0272   3.9003  0.00620  -3.5060E-04  4.6568E-03  4.6700E-03   94.306
    51    1  -0.0313   0.0221   3.9015  0.00709  -3.4187E-04  4.5836E-03  4.5963E-03   94.266
    52    1  -0.0346   0.0161   3.9027  0.00695  -3.3239E-04  4.5007E-03  4.5130E-03   94.224
    53    1  -0.0370   0.0099   3.9037  0.00661  -3.2285E-04  4.4136E-03  4.4254E-03   94.184
    54    1  -0.0382   0.0034   3.9047  0.00682  -3.1307E-04  4.3210E-03  4.3324E-03   94.144
    55    1  -0.0382  -0.0034   3.9056  0.00682  -3.0288E-04  4.2210E-03  4.2318E-03   94.104
    56    1  -0.0370  -0.0099   3.9068  0.00670  -2.9250E-04  4.1156E-03  4.1260E-03   94.065
    57    1  -0.0346  -0.0161   3.9080  0.00695  -2.8198E-04  4.0054E-03  4.0153E-03   94.027
    58    1  -0.0313  -0.0221   3.9090  0.00700  -2.7099E-04  3.8867E-03  3.8962E-03   93.988
    59    1  -0.0272  -0.0272   3.9099  0.00620  -2.6038E-04  3.7690E-03  3.7780E-03   93.952
    60    1  -0.0221  -0.0313   3.9111  0.00709  -2.4955E-04  3.6459E-03  3.6544E-03   93.916
    61    1  -0.0161  -0.0346   3.9124  0.00695  -2.3808E-04  3.5122E-03  3.5203E-03   93.878
    62    1  -0.0099  -0.0370   3.9133  0.00661  -2.2681E-04  3.3781E-03  3.3857E-03   93.841
    63    1  -0.0034  -0.0382   3.9143  0.00682  -2.1547E-04  3.2407E-03  3.2479E-03   93.804
    64    1   0.0034  -0.0382   3.9152  0.00682  -2.0380E-04  3.0970E-03  3.1037E-03   93.765
    65    1   0.0099  -0.0370   3.9164  0.00670  -1.9204E-04  2.9502E-03  2.9564E-03   93.724
    66    1   0.0161  -0.0346   3.9176  0.00695  -1.8013E-04  2.7998E-03  2.8056E-03   93.681
    67    1   0.0221  -0.0313   3.9186  0.00700  -1.6774E-04  2.6421E-03  2.6474E-03   93.633
    68    1   0.0272  -0.0272   3.9196  0.00620  -1.5581E-04  2.4895E-03  2.4943E-03   93.581
    69    1   0.0313  -0.0221   3.9205  0.00700  -1.4373E-04  2.3345E-03  2.3390E-03   93.523
    70    1   0.0346  -0.0161   3.9217  0.00704  -1.3068E-04  2.1674E-03  2.1713E-03   93.450
    71    1   0.0370  -0.0099   3.9229  0.00661  -1.1801E-04  2.0056E-03  2.0091E-03   93.367
    72    1   0.0382  -0.0034   3.9239  0.00682  -1.0547E-04  1.8466E-03  1.8496E-03   93.269
    73  999   0.0351   0.0017   3.8873  0.00337   1.1940E-04 -7.1042E-03  7.1052E-03  -89.037
    74    4   0.0346   0.0048   3.8873  0.00304   1.1974E-04 -7.1826E-03  7.1836E-03  -89.045
    75    4   0.0334   0.0077   3.8873  0.00323   1.2003E-04 -7.2550E-03  7.2560E-03  -89.052
    76    4   0.0317   0.0106   3.8873  0.00347   1.2031E-04 -7.3192E-03  7.3201E-03  -89.058
    77    4   0.0296   0.0132   3.8873  0.00340   1.2058E-04 -7.3764E-03  7.3774E-03  -89.064
    78    4   0.0272   0.0154   3.8873  0.00308   1.2083E-04 -7.4236E-03  7.4246E-03  -89.067
    79    4   0.0245   0.0171   3.8873  0.00323   1.2110E-04 -7.4646E-03  7.4656E-03  -89.071
    80    4   0.0214   0.0180   3.8873  0.00340   1.2140E-04 -7.5031E-03  7.5041E-03  -89.073
    81    4   0.0180   0.0185   3.8873  0.00340   1.2173E-04 -7.5381E-03  7.5390E-03  -89.075
    82    4   0.0147   0.0185   3.8873  0.00340   1.2207E-04 -7.5693E-03  7.5702E-03  -89.076
    83    4   0.0115   0.0180   3.8873  0.00293   1.2239E-04 -7.5949E-03  7.5959E-03  -89.077
    84    4   0.0087   0.0171   3.8873  0.00323   1.2269E-04 -7.6170E-03  7.6180E-03  -89.077
    85    4   0.0058   0.0154   3.8873  0.00347   1.2300E-04 -7.6377E-03  7.6386E-03  -89.077
    86    4   0.0031   0.0132   3.8873  0.00340   1.2327E-04 -7.6552E-03  7.6562E-03  -89.077
    87    4   0.0010   0.0106   3.8873  0.00347   1.2349E-04 -7.6690E-03  7.6700E-03  -89.077
    88    4  -0.0005   0.0077   3.8873  0.00304   1.2363E-04 -7.6785E-03  7.6795E-03  -89.078
    89    4  -0.0014   0.0048   3.8873  0.00304   1.2369E-04 -7.6842E-03  7.6852E-03  -89.078
    90    4  -0.0022   0.0017   3.8873  0.00340   1.2368E-04 -7.6870E-03  7.6880E-03  -89.078
    91    4  -0.0022  -0.0017   3.8873  0.00340   1.2358E-04 -7.6861E-03  7.6871E-03  -89.079
    92    4  -0.0014  -0.0048   3.8873  0.00304   1.2340E-04 -7.6818E-03  7.6828E-03  -89.080
    93    4  -0.0005  -0.0077   3.8873  0.00304   1.2317E-04 -7.6747E-03  7.6757E-03  -89.081
    94    4   0.0010  -0.0106   3.8873  0.00347   1.2284E-04 -7.6638E-03  7.6648E-03  -89.082
    95    4   0.0031  -0.0132   3.8873  0.00340   1.2243E-04 -7.6488E-03  7.6497E-03  -89.083
    96    4   0.0058  -0.0154   3.8873  0.00347   1.2197E-04 -7.6302E-03  7.6312E-03  -89.084
    97    4   0.0087  -0.0171   3.8873  0.00323   1.2149E-04 -7.6090E-03  7.6100E-03  -89.085
    98    4   0.0115  -0.0180   3.8873  0.00293   1.2103E-04 -7.5869E-03  7.5878E-03  -89.086
    99    4   0.0147  -0.0185   3.8873  0.00340   1.2057E-04 -7.5616E-03  7.5626E-03  -89.086
   100    4   0.0180  -0.0185   3.8873  0.00340   1.2010E-04 -7.5316E-03  7.5326E-03  -89.086
   101    4   0.0214  -0.0180   3.8873  0.00340   1.1966E-04 -7.4988E-03  7.4997E-03  -89.086
   102    4   0.0245  -0.0171   3.8873  0.00323   1.1931E-04 -7.4639E-03  7.4649E-03  -89.084
   103    4   0.0272  -0.0154   3.8873  0.00308   1.1906E-04 -7.4280E-03  7.4290E-03  -89.082
   104    4   0.0296  -0.0132   3.8873  0.00340   1.1887E-04 -7.3879E-03  7.3889E-03  -89.078
   105    4   0.0317  -0.0108   3.8873  0.00308   1.1876E-04 -7.3441E-03  7.3451E-03  -89.074
   106    4   0.0334  -0.0079   3.8873  0.00366   1.1877E-04 -7.2938E-03  7.2947E-03  -89.067
   107    4   0.0346  -0.0048   3.8873  0.00304   1.1888E-04 -7.2380E-03  7.2390E-03  -89.059
   108    4   0.0351  -0.0017   3.8873  0.00337   1.1911E-04 -7.1745E-03  7.1755E-03  -89.049
   109    2   0.0382  -0.0034   3.9922  0.00682   3.5683E-05 -2.5677E-05  4.3961E-05  -35.738
   110    2   0.0370  -0.0099   3.9932  0.00661   4.7143E-05 -1.8892E-04  1.9471E-04  -75.988
   111    2   0.0346  -0.0161   3.9944  0.00704   5.8810E-05 -3.5729E-04  3.6209E-04  -80.653
   112    2   0.0313  -0.0221   3.9956  0.00700   7.0877E-05 -5.3356E-04  5.3825E-04  -82.433
   113    2   0.0272  -0.0272   3.9965  0.00620   8.2131E-05 -6.9979E-04  7.0459E-04  -83.306
   114    2   0.0221  -0.0313   3.9975  0.00700   9.3311E-05 -8.6625E-04  8.7126E-04  -83.852
   115    2   0.0161  -0.0346   3.9984  0.00695   1.0501E-04 -1.0414E-03  1.0467E-03  -84.242
   116    2   0.0099  -0.0370   3.9997  0.00670   1.1634E-04 -1.2117E-03  1.2173E-03  -84.516
   117    2   0.0034  -0.0382   4.0009  0.00682   1.2757E-04 -1.3810E-03  1.3869E-03  -84.722
   118    2  -0.0034  -0.0382   4.0018  0.00682   1.3880E-04 -1.5501E-03  1.5563E-03  -84.883
   119    2  -0.0099  -0.0370   4.0028  0.00661   1.4978E-04 -1.7152E-03  1.7217E-03  -85.009
   120    2  -0.0161  -0.0346   4.0040  0.00704   1.6084E-04 -1.8805E-03  1.8874E-03  -85.111
   121    2  -0.0221  -0.0313   4.0052  0.00700   1.7222E-04 -2.0495E-03  2.0567E-03  -85.197
   122    2  -0.0272  -0.0272   4.0061  0.00620   1.8285E-04 -2.2060E-03  2.2136E-03  -85.262
   123    2  -0.0313  -0.0221   4.0071  0.00700   1.9341E-04 -2.3602E-03  2.3681E-03  -85.315
   124    2  -0.0346  -0.0161   4.0081  0.00695   2.0445E-04 -2.5195E-03  2.5278E-03  -85.361
   125    2  -0.0370  -0.0099   4.0093  0.00670   2.1512E-04 -2.6717E-03  2.6803E-03  -85.397
   126    2  -0.0382  -0.0034   4.0105  0.00682   2.2566E-04 -2.8205E-03  2.8295E-03  -85.426
   127    2  -0.0382   0.0034   4.0114  0.00682   2.3612E-04 -2.9662E-03  2.9756E-03  -85.449
   128    2  -0.0370   0.0099   4.0124  0.00661   2.4625E-04 -3.1056E-03  3.1154E-03  -85.466
   129    2  -0.0346   0.0161   4.0134  0.00695   2.5623E-04 -3.2414E-03  3.2516E-03  -85.480
   130    2  -0.0313   0.0221   4.0146  0.00709   2.6626E-04 -3.3766E-03  3.3871E-03  -85.491
   131    2  -0.0272   0.0272   4.0158  0.00620   2.7555E-04 -3.5007E-03  3.5116E-03  -85.499
   132    2  -0.0221   0.0313   4.0167  0.00700   2.8444E-04 -3.6188E-03  3.6300E-03  -85.506
   133    2  -0.0161   0.0346   4.0177  0.00695   2.9339E-04 -3.7369E-03  3.7484E-03  -85.511
   134    2  -0.0099   0.0370   4.0186  0.00661   3.0159E-04 -3.8449E-03  3.8567E-03  -85.515
   135    2  -0.0034   0.0382   4.0199  0.00690   3.0926E-04 -3.9456E-03  3.9577E-03  -85.518
   136    2   0.0034   0.0382   4.0211  0.00682   3.1654E-04 -4.0418E-03  4.0542E-03  -85.522
   137    2   0.0099   0.0370   4.0220  0.00661   3.2302E-04 -4.1280E-03  4.1406E-03  -85.526
   138    2   0.0161   0.0346   4.0230  0.00695   3.2882E-04 -4.2062E-03  4.2190E-03  -85.530
   139    2   0.0221   0.0313   4.0239  0.00700   3.3395E-04 -4.2768E-03  4.2898E-03  -85.535
   140    2   0.0272   0.0272   4.0251  0.00629   3.3798E-04 -4.3337E-03  4.3469E-03  -85.541
   141    2   0.0313   0.0221   4.0263  0.00700   3.4130E-04 -4.3832E-03  4.3965E-03  -85.548
   142    2   0.0346   0.0161   4.0273  0.00695   3.4374E-04 -4.4228E-03  4.4361E-03  -85.556
   143    2   0.0370   0.0099   4.0283  0.00661   3.4505E-04 -4.4488E-03  4.4621E-03  -85.565
   144    2   0.0382   0.0034   4.0295  0.00690   3.4530E-04 -4.4623E-03  4.4757E-03  -85.575
   145    2   0.0382  -0.0034   4.0307  0.00682   3.4465E-04 -4.4659E-03  4.4792E-03  -85.587
   146    2   0.0370  -0.0099   4.0316  0.00661   3.4295E-04 -4.4570E-03  4.4702E-03  -85.600
   147    2   0.0346  -0.0161   4.0326  0.00695   3.4027E-04 -4.4362E-03  4.4493E-03  -85.614
   148    2   0.0313  -0.0221   4.0336  0.00700   3.3653E-04 -4.4031E-03  4.4159E-03  -85.629
   149    2   0.0272  -0.0272   4.0348  0.00629   3.3210E-04 -4.3610E-03  4.3736E-03  -85.645
   150    2   0.0221  -0.0313   4.0360  0.00700   3.2711E-04 -4.3124E-03  4.3248E-03  -85.662
   151    2   0.0161  -0.0346   4.0369  0.00695   3.2114E-04 -4.2519E-03  4.2640E-03  -85.681
   152    2   0.0099  -0.0370   4.0379  0.00661   3.1470E-04 -4.1846E-03  4.1964E-03  -85.699
   153    2   0.0034  -0.0382   4.0389  0.00682   3.0778E-04 -4.1104E-03  4.1219E-03  -85.718
   154    2  -0.0034  -0.0382   4.0401  0.00690   3.0021E-04 -4.0272E-03  4.0384E-03  -85.737
   155    2  -0.0099  -0.0370   4.0413  0.00661   2.9242E-04 -3.9402E-03  3.9510E-03  -85.756
   156    2  -0.0161  -0.0346   4.0422  0.00695   2.8423E-04 -3.8464E-03  3.8569E-03  -85.774
   157    2  -0.0221  -0.0313   4.0432  0.00700   2.7544E-04 -3.7434E-03  3.7535E-03  -85.792
   158    2  -0.0272  -0.0272   4.0441  0.00620   2.6682E-04 -3.6400E-03  3.6497E-03  -85.808
   159    2  -0.0313  -0.0221   4.0453  0.00709   2.5789E-04 -3.5307E-03  3.5402E-03  -85.822
   160    2  -0.0346  -0.0161   4.0465  0.00695   2.4831E-04 -3.4113E-03  3.4203E-03  -85.837
   161    2  -0.0370  -0.0099   4.0475  0.00661   2.3883E-04 -3.2904E-03  3.2991E-03  -85.849
   162    2  -0.0382  -0.0034   4.0485  0.00682   2.2923E-04 -3.1658E-03  3.1741E-03  -85.859
   163    2  -0.0382   0.0034   4.0494  0.00682   2.1932E-04 -3.0347E-03  3.0426E-03  -85.866
   164    2  -0.0370   0.0099   4.0506  0.00670   2.0930E-04 -2.8999E-03  2.9074E-03  -85.872
   165    2  -0.0346   0.0161   4.0518  0.00695   1.9912E-04 -2.7612E-03  2.7683E-03  -85.875
   166    2  -0.0313   0.0221   4.0528  0.00700   1.8852E-04 -2.6147E-03  2.6215E-03  -85.876
   167    2  -0.0272   0.0272   4.0538  0.00620   1.7830E-04 -2.4721E-03  2.4785E-03  -85.875
   168    2  -0.0221   0.0313   4.0550  0.00709   1.6786E-04 -2.3250E-03  2.3311E-03  -85.870
   169    2  -0.0161   0.0346   4.0562  0.00695   1.5670E-04 -2.1671E-03  2.1728E-03  -85.864
   170    2  -0.0099   0.0370   4.0571  0.00661   1.4569E-04 -2.0108E-03  2.0161E-03  -85.856
   171    2  -0.0034   0.0382   4.0581  0.00682   1.3457E-04 -1.8525E-03  1.8574E-03  -85.845
   172    2   0.0034   0.0382   4.0591  0.00682   1.2303E-04 -1.6886E-03  1.6930E-03  -85.833
   173    2   0.0099   0.0370   4.0603  0.00670   1.1132E-04 -1.5225E-03  1.5266E-03  -85.818
   174    2   0.0161   0.0346   4.0615  0.00695   9.9265E-05 -1.3526E-03  1.3563E-03  -85.803
   175    2   0.0221   0.0313   4.0624  0.00700   8.6583E-05 -1.1750E-03  1.1782E-03  -85.786
   176    2   0.0272   0.0272   4.0634  0.00620   7.4207E-05 -1.0029E-03  1.0057E-03  -85.768
   177    2   0.0313   0.0221   4.0643  0.00700   6.1416E-05 -8.2652E-04  8.2880E-04  -85.750
   178    2   0.0346   0.0161   4.0655  0.00704   4.7218E-05 -6.3246E-04  6.3422E-04  -85.730
   179    2   0.0370   0.0099   4.0667  0.00661   3.2616E-05 -4.3500E-04  4.3622E-04  -85.712
   180    2   0.0382   0.0034   4.0677  0.00682   1.6151E-05 -2.1452E-04  2.1513E-04  -85.695
   181    3   0.0385   0.0000   3.9412  0.03367  -6.5253E-05  1.3365E-03  1.3381E-03   92.795
   182    3   0.0385   0.0000   3.9749  0.03367  -1.5116E-06  4.8915E-04  4.8915E-04   90.177



                                        - - - POWER BUDGET - - -

                                           INPUT POWER   = 5.9702E-05 WATTS
                                           RADIATED POWER= 5.4761E-05 WATTS
                                           STRUCTURE LOSS= 4.9408E-06 WATTS
                                           NETWORK LOSS  = 0.0000E+00 WATTS
                                           EFFICIENCY    =  91.72 PERCENT



                                                - - - RADIATION PATTERNS - - -

  - - ANGLES - -           - POWER GAINS -       - - - POLARIZATION - - -    - - - E(THETA) - - -    - - - E(PHI) - - -
  THETA     PHI        VERT.   HOR.    TOTAL      AXIAL     TILT   SENSE     MAGNITUDE    PHASE      MAGNITUDE    PHASE 
 DEGREES  DEGREES       DB      DB      DB        RATIO     DEG.              VOLTS/M    DEGREES      VOLTS/M    DEGREES
   85.00    90.00      -5.30    4.12    4.59    0.33810   -89.88  RIGHT     3.25020E-02   -75.99    9.61300E-02  -166.31






 ***** DATA CARD NO.  7   EN   0     1     1  1000  8.50000E+01  9.00000E+01  0.00000E+00  0.00000E+00  0.00000E+00  0.00000E+00

 RUN TIME =     0.281
[...]
  5731    3   0.0380  -0.0065 142.7481  0.02502  -5.0686E-03 -1.2005E-03  5.2088E-03 -166.675
  5732    3   0.0380  -0.0065 142.7731  0.02502  -6.2204E-03 -1.0095E-03  6.3018E-03 -170.782
  5733    3   0.0380  -0.0065 142.7981  0.02502  -7.2192E-03 -7.9404E-04  7.2627E-03 -173.723
  5734    3   0.0380  -0.0065 142.8231  0.02502  -8.0402E-03 -5.5942E-04  8.0596E-03 -176.020
  5735    3   0.0380  -0.0065 142.8481  0.02502  -8.6631E-03 -3.1148E-04  8.6687E-03 -177.941
  5736    3   0.0380  -0.0065 142.8732  0.02502  -9.0725E-03 -5.6357E-05  9.0727E-03 -179.644
  5737    3   0.0380  -0.0065 142.8982  0.02502  -9.2583E-03  1.9962E-04  9.2604E-03  178.765
  5738    3   0.0380  -0.0065 142.9232  0.02502  -9.2157E-03  4.5015E-04  9.2267E-03  177.204
  5739    3   0.0380  -0.0065 142.9482  0.02502  -8.9458E-03  6.8904E-04  8.9723E-03  175.596
  5740    3   0.0380  -0.0065 142.9732  0.02502  -8.4551E-03  9.1042E-04  8.5039E-03  173.854
  5741    3   0.0380  -0.0065 142.9982  0.02502  -7.7556E-03  1.1089E-03  7.8345E-03  171.863
  5742    3   0.0380  -0.0065 143.0233  0.02502  -6.8647E-03  1.2795E-03  6.9829E-03  169.442
  5743    3   0.0380  -0.0065 143.0483  0.02502  -5.8040E-03  1.4183E-03  5.9748E-03  166.268
  5744    3   0.0380  -0.0065 143.0733  0.02502  -4.5999E-03  1.5217E-03  4.8450E-03  161.695
  5745    3   0.0380  -0.0065 143.0983  0.02502  -3.2818E-03  1.5873E-03  3.6456E-03  154.188
  5746    3   0.0380  -0.0065 143.1233  0.02502  -1.8824E-03  1.6137E-03  2.4794E-03  139.395
  5747    3   0.0380  -0.0065 143.1484  0.02502  -4.3603E-04  1.6002E-03  1.6585E-03  105.243
  5748    3   0.0380  -0.0065 143.1734  0.02502   1.0216E-03  1.5472E-03  1.8540E-03   56.564
  5749    3   0.0380  -0.0065 143.1984  0.02502   2.4545E-03  1.4561E-03  2.8539E-03   30.678
  5750    3   0.0380  -0.0065 143.2234  0.02502   3.8274E-03  1.3294E-03  4.0517E-03   19.154
  5751    3   0.0380  -0.0065 143.2484  0.02502   5.1063E-03  1.1701E-03  5.2387E-03   12.906
  5752    3   0.0380  -0.0065 143.2734  0.02502   6.2598E-03  9.8231E-04  6.3364E-03    8.918
  5753    3   0.0380  -0.0065 143.2985  0.02502   7.2592E-03  7.7072E-04  7.3000E-03    6.060
  5754    3   0.0380  -0.0065 143.3235  0.02502   8.0799E-03  5.4060E-04  8.0980E-03    3.828
  5755    3   0.0380  -0.0065 143.3485  0.02502   8.7016E-03  2.9769E-04  8.7067E-03    1.959
  5756    3   0.0380  -0.0065 143.3735  0.02502   9.1088E-03  4.7998E-05  9.1090E-03    0.302
  5757    3   0.0380  -0.0065 143.3985  0.02502   9.2915E-03 -2.0228E-04  9.2937E-03   -1.247
  5758    3   0.0380  -0.0065 143.4235  0.02502   9.2451E-03 -4.4696E-04  9.2559E-03   -2.768
  5759    3   0.0380  -0.0065 143.4486  0.02502   8.9705E-03 -6.8003E-04  8.9963E-03   -4.335
  5760    3   0.0380  -0.0065 143.4736  0.02502   8.4746E-03 -8.9575E-04  8.5218E-03   -6.034
  5761    3   0.0380  -0.0065 143.4986  0.02502   7.7694E-03 -1.0888E-03  7.8453E-03   -7.978
  5762    3   0.0380  -0.0065 143.5236  0.02502   6.8723E-03 -1.2546E-03  6.9858E-03  -10.346
  5763    3   0.0380  -0.0065 143.5486  0.02502   5.8053E-03 -1.3889E-03  5.9691E-03  -13.455
  5764    3   0.0380  -0.0065 143.5737  0.02502   4.5946E-03 -1.4887E-03  4.8298E-03  -17.953
  5765    3   0.0380  -0.0065 143.5987  0.02502   3.2702E-03 -1.5514E-03  3.6195E-03  -25.381
  5766    3   0.0380  -0.0065 143.6237  0.02502   1.8645E-03 -1.5758E-03  2.4412E-03  -40.202
  5767    3   0.0380  -0.0065 143.6487  0.02502   4.1236E-04 -1.5611E-03  1.6147E-03  -75.204
  5768    3   0.0380  -0.0065 143.6737  0.02502  -1.0506E-03 -1.5080E-03  1.8379E-03 -124.864
  5769    3   0.0380  -0.0065 143.6987  0.02502  -2.4882E-03 -1.4178E-03  2.8638E-03 -150.325
  5770    3   0.0380  -0.0065 143.7238  0.02502  -3.8650E-03 -1.2928E-03  4.0755E-03 -161.505
  5771    3   0.0380  -0.0066 143.7488  0.02502  -5.1470E-03 -1.1363E-03  5.2709E-03 -167.551
  5772    3   0.0380  -0.0066 143.7738  0.02502  -6.3026E-03 -9.5214E-04  6.3741E-03 -171.409
  5773    3   0.0380  -0.0066 143.7988  0.02502  -7.3031E-03 -7.4498E-04  7.3410E-03 -174.175
  5774    3   0.0380  -0.0066 143.8238  0.02502  -8.1239E-03 -5.2000E-04  8.1405E-03 -176.338
  5775    3   0.0380  -0.0066 143.8489  0.02502  -8.7446E-03 -2.8280E-04  8.7492E-03 -178.148
  5776    3   0.0380  -0.0066 143.8739  0.02502  -9.1499E-03 -3.9280E-05  9.1500E-03 -179.754
  5777    3   0.0380  -0.0066 143.8989  0.02502  -9.3296E-03  2.0453E-04  9.3318E-03  178.744
  5778    3   0.0380  -0.0066 143.9239  0.02502  -9.2792E-03  4.4261E-04  9.2898E-03  177.269
  5779    3   0.0380  -0.0066 143.9489  0.02502  -8.9999E-03  6.6909E-04  9.0247E-03  175.748
  5780    3   0.0380  -0.0066 143.9739  0.02502  -8.4984E-03  8.7841E-04  8.5437E-03  174.099
  5781    3   0.0380  -0.0066 143.9990  0.02502  -7.7870E-03  1.0654E-03  7.8596E-03  172.209
  5782    3   0.0380  -0.0066 144.0240  0.02502  -6.8832E-03  1.2256E-03  6.9915E-03  169.904
  5783    3   0.0380  -0.0066 144.0490  0.02502  -5.8092E-03  1.3551E-03  5.9652E-03  166.870
  5784    3   0.0380  -0.0066 144.0740  0.02502  -4.5914E-03  1.4507E-03  4.8152E-03  162.465
  5785    3   0.0380  -0.0066 144.0990  0.02502  -3.2598E-03  1.5103E-03  3.5926E-03  155.142
  5786    3   0.0380  -0.0066 144.1240  0.02502  -1.8471E-03  1.5323E-03  2.4000E-03  140.321
  5787    3   0.0380  -0.0066 144.1491  0.02502  -3.8825E-04  1.5165E-03  1.5654E-03  104.360
  5788    3   0.0380  -0.0066 144.1741  0.02502   1.0809E-03  1.4633E-03  1.8192E-03   53.549
  5789    3   0.0380  -0.0066 144.1991  0.02502   2.5240E-03  1.3742E-03  2.8739E-03   28.565
  5790    3   0.0380  -0.0066 144.2241  0.02502   3.9056E-03  1.2514E-03  4.1012E-03   17.766
  5791    3   0.0380  -0.0066 144.2491  0.02502   5.1915E-03  1.0981E-03  5.3063E-03   11.943
  5792    3   0.0380  -0.0066 144.2742  0.02502   6.3498E-03  9.1813E-04  6.4159E-03    8.227
  5793    3   0.0380  -0.0066 144.2992  0.02502   7.3521E-03  7.1611E-04  7.3869E-03    5.563
  5794    3   0.0380  -0.0066 144.3242  0.02502   8.1735E-03  4.9707E-04  8.1886E-03    3.480
  5795    3   0.0380  -0.0066 144.3492  0.02502   8.7937E-03  2.6648E-04  8.7977E-03    1.736
  5796    3   0.0380  -0.0066 144.3742  0.02502   9.1972E-03  3.0079E-05  9.1972E-03    0.187
  5797    3   0.0380  -0.0066 144.3992  0.02502   9.3740E-03 -2.0628E-04  9.3762E-03   -1.261
  5798    3   0.0380  -0.0066 144.4243  0.02502   9.3196E-03 -4.3674E-04  9.3298E-03   -2.683
  5799    3   0.0380  -0.0066 144.4493  0.02502   9.0352E-03 -6.5563E-04  9.0590E-03   -4.150
  5800    3   0.0380  -0.0066 144.4743  0.02502   8.5278E-03 -8.5758E-04  8.5708E-03   -5.743
  5801    3   0.0380  -0.0066 144.4993  0.02502   7.8097E-03 -1.0377E-03  7.8784E-03   -7.568
  5802    3   0.0380  -0.0066 144.5243  0.02502   6.8986E-03 -1.1915E-03  7.0007E-03   -9.799
  5803    3   0.0380  -0.0066 144.5494  0.02502   5.8168E-03 -1.3153E-03  5.9636E-03  -12.742
  5804    3   0.0380  -0.0066 144.5744  0.02502   4.5909E-03 -1.4062E-03  4.8014E-03  -17.030
  5805    3   0.0380  -0.0066 144.5994  0.02502   3.2511E-03 -1.4621E-03  3.5647E-03  -24.215
  5806    3   0.0380  -0.0066 144.6244  0.02502   1.8303E-03 -1.4817E-03  2.3548E-03  -38.991
  5807    3   0.0380  -0.0066 144.6494  0.02502   3.6357E-04 -1.4646E-03  1.5090E-03  -76.058
  5808    3   0.0380  -0.0066 144.6744  0.02502  -1.1129E-03 -1.4113E-03  1.7974E-03 -128.257
  5809    3   0.0380  -0.0066 144.6995  0.02502  -2.5628E-03 -1.3235E-03  2.8843E-03 -152.687
  5810    3   0.0380  -0.0066 144.7245  0.02502  -3.9502E-03 -1.2033E-03  4.1294E-03 -163.059
  5811    3   0.0380  -0.0066 144.7495  0.02502  -5.2410E-03 -1.0538E-03  5.3459E-03 -168.631
  5812    3   0.0380  -0.0066 144.7745  0.02502  -6.4032E-03 -8.7890E-04  6.4632E-03 -172.184
  5813    3   0.0380  -0.0066 144.7995  0.02502  -7.4081E-03 -6.8298E-04  7.4395E-03 -174.733
  5814    3   0.0380  -0.0066 144.8245  0.02502  -8.2308E-03 -4.7098E-04  8.2442E-03 -176.725
  5815    3   0.0380  -0.0066 144.8496  0.02502  -8.8509E-03 -2.4820E-04  8.8543E-03 -178.394
  5816    3   0.0380  -0.0066 144.8746  0.02502  -9.2529E-03 -2.0206E-05  9.2530E-03 -179.875
  5817    3   0.0380  -0.0066 144.8996  0.02502  -9.4270E-03  2.0734E-04  9.4293E-03  178.740
  5818    3   0.0380  -0.0066 144.9246  0.02502  -9.3685E-03  4.2880E-04  9.3783E-03  177.379
  5819    3   0.0380  -0.0066 144.9496  0.02502  -9.0789E-03  6.3873E-04  9.1013E-03  175.976
  5820    3   0.0380  -0.0066 144.9747  0.02502  -8.5650E-03  8.3198E-04  8.6053E-03  174.452
  5821    3   0.0380  -0.0066 144.9997  0.02502  -7.8395E-03  1.0038E-03  7.9035E-03  172.703
  5822    3   0.0380  -0.0066 145.0247  0.02502  -6.9201E-03  1.1501E-03  7.0150E-03  170.564
  5823    3   0.0380  -0.0066 145.0497  0.02502  -5.8294E-03  1.2673E-03  5.9656E-03  167.735
  5824    3   0.0380  -0.0066 145.0747  0.02502  -4.5941E-03  1.3527E-03  4.7891E-03  163.593
  5825    3   0.0380  -0.0066 145.0997  0.02502  -3.2447E-03  1.4042E-03  3.5355E-03  156.598
  5826    3   0.0380  -0.0066 145.1248  0.02502  -1.8143E-03  1.4209E-03  2.3044E-03  141.933
  5827    3   0.0380  -0.0066 145.1498  0.02502  -3.3811E-04  1.4023E-03  1.4425E-03  103.556
  5828    3   0.0380  -0.0066 145.1748  0.02502   1.1474E-03  1.3491E-03  1.7710E-03   49.620
  5829    3   0.0380  -0.0066 145.1998  0.02502   2.6056E-03  1.2629E-03  2.8955E-03   25.859
  5830    3   0.0380  -0.0066 145.2248  0.02502   4.0005E-03  1.1459E-03  4.1614E-03   15.983
  5831    3   0.0380  -0.0066 145.2499  0.02502   5.2977E-03  1.0011E-03  5.3914E-03   10.701
  5832    3   0.0380  -0.0066 145.2749  0.02502   6.4651E-03  8.3229E-04  6.5184E-03    7.336
  5833    3   0.0380  -0.0066 145.2999  0.02502   7.4738E-03  6.4379E-04  7.5014E-03    4.923
  5834    3   0.0380  -0.0066 145.3249  0.02502   8.2988E-03  4.4035E-04  8.3105E-03    3.037
  5835    3   0.0380  -0.0066 145.3499  0.02502   8.9196E-03  2.2708E-04  8.9225E-03    1.458
  5836    3   0.0380  -0.0066 145.3749  0.02502   9.3209E-03  9.3450E-06  9.3209E-03    0.057
  5837    3   0.0380  -0.0066 145.4000  0.02502   9.4924E-03 -2.0745E-04  9.4946E-03   -1.252
  5838    3   0.0380  -0.0066 145.4250  0.02502   9.4298E-03 -4.1792E-04  9.4391E-03   -2.538
  5839    3   0.0380  -0.0066 145.4500  0.02502   9.1345E-03 -6.1689E-04  9.1553E-03   -3.864
  5840    3   0.0380  -0.0066 145.4750  0.02502   8.6135E-03 -7.9947E-04  8.6505E-03   -5.303
  5841    3   0.0380  -0.0066 145.5000  0.02502   7.8796E-03 -9.6123E-04  7.9380E-03   -6.955
  5842    3   0.0380  -0.0066 145.5250  0.02502   6.9506E-03 -1.0983E-03  7.0369E-03   -8.979
  5843    3   0.0380  -0.0066 145.5501  0.02502   5.8494E-03 -1.2073E-03  5.9727E-03  -11.662
  5844    3   0.0380  -0.0066 145.5751  0.02502   4.6029E-03 -1.2858E-03  4.7791E-03  -15.608
  5845    3   0.0380  -0.0066 145.6001  0.02502   3.2418E-03 -1.3321E-03  3.5048E-03  -22.338
  5846    3   0.0380  -0.0066 145.6251  0.02502   1.7995E-03 -1.3450E-03  2.2466E-03  -36.777
  5847    3   0.0380  -0.0066 145.6501  0.02502   3.1152E-04 -1.3247E-03  1.3608E-03  -76.766
  5848    3   0.0380  -0.0066 145.6752  0.02502  -1.1854E-03 -1.2716E-03  1.7384E-03 -132.991
  5849    3   0.0380  -0.0066 145.7002  0.02502  -2.6544E-03 -1.1874E-03  2.9079E-03 -155.899
  5850    3   0.0380  -0.0066 145.7252  0.02502  -4.0592E-03 -1.0744E-03  4.1990E-03 -165.175
  5851    3   0.0380  -0.0066 145.7502  0.02502  -5.3652E-03 -9.3554E-04  5.4461E-03 -170.109
  5852    3   0.0380  -0.0066 145.7752  0.02502  -6.5399E-03 -7.7447E-04  6.5856E-03 -173.246
  5853    3   0.0380  -0.0066 145.8002  0.02502  -7.5544E-03 -5.9534E-04  7.5778E-03 -175.494
  5854    3   0.0380  -0.0066 145.8253  0.02502  -8.3834E-03 -4.0275E-04  8.3930E-03 -177.250
  5855    3   0.0380  -0.0066 145.8503  0.02502  -9.0063E-03 -2.0159E-04  9.0085E-03 -178.718
  5856    3   0.0380  -0.0067 145.8753  0.02502  -9.4075E-03  3.0842E-06  9.4075E-03  179.981
  5857    3   0.0380  -0.0067 145.9003  0.02502  -9.5770E-03  2.0613E-04  9.5792E-03  178.767
  5858    3   0.0380  -0.0067 145.9253  0.02502  -9.5103E-03  4.0251E-04  9.5188E-03  177.577
  5859    3   0.0380  -0.0067 145.9504  0.02502  -9.2089E-03  5.8736E-04  9.2276E-03  176.351
  5860    3   0.0380  -0.0067 145.9754  0.02502  -8.6798E-03  7.5617E-04  8.7127E-03  175.021
  5861    3   0.0380  -0.0067 146.0004  0.02502  -7.9359E-03  9.0484E-04  7.9874E-03  173.495
  5862    3   0.0380  -0.0067 146.0254  0.02502  -6.9954E-03  1.0298E-03  7.0708E-03  171.625
  5863    3   0.0380  -0.0067 146.0504  0.02502  -5.8812E-03  1.1282E-03  5.9885E-03  169.141
  5864    3   0.0380  -0.0067 146.0754  0.02502  -4.6206E-03  1.1977E-03  4.7733E-03  165.468
  5865    3   0.0380  -0.0067 146.1005  0.02502  -3.2445E-03  1.2369E-03  3.4723E-03  159.132
  5866    3   0.0380  -0.0067 146.1255  0.02502  -1.7867E-03  1.2450E-03  2.1777E-03  145.132
  5867    3   0.0380  -0.0067 146.1505  0.02502  -2.8314E-04  1.2221E-03  1.2544E-03  103.045
  5868    3   0.0380  -0.0067 146.1755  0.02502   1.2293E-03  1.1690E-03  1.6964E-03   43.561
  5869    3   0.0380  -0.0067 146.2005  0.02502   2.7132E-03  1.0874E-03  2.9230E-03   21.841
  5870    3   0.0380  -0.0067 146.2255  0.02502   4.1320E-03  9.7963E-04  4.2466E-03   13.337
  5871    3   0.0380  -0.0067 146.2506  0.02502   5.4507E-03  8.4856E-04  5.5164E-03    8.849
  5872    3   0.0380  -0.0067 146.2756  0.02502   6.6365E-03  6.9775E-04  6.6731E-03    6.002
  5873    3   0.0380  -0.0067 146.3006  0.02502   7.6602E-03  5.3119E-04  7.6786E-03    3.967
  5874    3   0.0380  -0.0067 146.3256  0.02502   8.4961E-03  3.5323E-04  8.5035E-03    2.381
  5875    3   0.0380  -0.0067 146.3506  0.02502   9.1235E-03  1.6849E-04  9.1251E-03    1.058
  5876    3   0.0380  -0.0067 146.3757  0.02502   9.5266E-03 -1.8322E-05  9.5266E-03   -0.110
  5877    3   0.0380  -0.0067 146.4007  0.02502   9.6951E-03 -2.0245E-04  9.6972E-03   -1.196
  5878    3   0.0380  -0.0067 146.4257  0.02502   9.6246E-03 -3.7928E-04  9.6321E-03   -2.257
  5879    3   0.0380  -0.0067 146.4507  0.02502   9.3164E-03 -5.4441E-04  9.3323E-03   -3.344
  5880    3   0.0380  -0.0067 146.4757  0.02502   8.7777E-03 -6.9381E-04  8.8051E-03   -4.519
  5881    3   0.0380  -0.0067 146.5007  0.02502   8.0216E-03 -8.2387E-04  8.0638E-03   -5.864
  5882    3   0.0380  -0.0067 146.5258  0.02502   7.0662E-03 -9.3154E-04  7.1273E-03   -7.510
  5883    3   0.0380  -0.0067 146.5508  0.02502   5.9348E-03 -1.0144E-03  6.0208E-03   -9.699
  5884    3   0.0380  -0.0067 146.5758  0.02502   4.6549E-03 -1.0706E-03  4.7765E-03  -12.952
  5885    3   0.0380  -0.0067 146.6008  0.02502   3.2580E-03 -1.0990E-03  3.4383E-03  -18.641
  5886    3   0.0380  -0.0067 146.6258  0.02502   1.7781E-03 -1.0995E-03  2.0906E-03  -31.731
  5887    3   0.0380  -0.0067 146.6509  0.02502   2.5155E-04 -1.0723E-03  1.1014E-03  -76.798
  5888    3   0.0380  -0.0067 146.6759  0.02502  -1.2841E-03 -1.0186E-03  1.6390E-03 -141.576
  5889    3   0.0380  -0.0067 146.7009  0.02502  -2.7910E-03 -9.4013E-04  2.9450E-03 -161.384
  5890    3   0.0380  -0.0067 146.7259  0.02502  -4.2320E-03 -8.3934E-04  4.3144E-03 -168.782
  5891    3   0.0380  -0.0067 146.7509  0.02502  -5.5715E-03 -7.1919E-04  5.6177E-03 -172.645
  5892    3   0.0380  -0.0067 146.7759  0.02502  -6.7763E-03 -5.8316E-04  6.8014E-03 -175.081
  5893    3   0.0380  -0.0067 146.8010  0.02502  -7.8166E-03 -4.3506E-04  7.8287E-03 -176.814
  5894    3   0.0380  -0.0067 146.8260  0.02502  -8.6662E-03 -2.7899E-04  8.6707E-03 -178.156
  5895    3   0.0380  -0.0067 146.8510  0.02502  -9.3039E-03 -1.1922E-04  9.3047E-03 -179.266
  5896    3   0.0380  -0.0067 146.8760  0.02502  -9.7135E-03  3.9960E-05  9.7136E-03  179.764
  5897    3   0.0380  -0.0067 146.9010  0.02502  -9.8844E-03  1.9433E-04  9.8863E-03  178.874
  5898    3   0.0380  -0.0067 146.9260  0.02502  -9.8117E-03  3.3985E-04  9.8176E-03  178.016
  5899    3   0.0380  -0.0067 146.9511  0.02502  -9.4967E-03  4.7280E-04  9.5085E-03  177.150
  5900    3   0.0380  -0.0067 146.9761  0.02502  -8.9465E-03  5.8985E-04  8.9659E-03  176.228
  5901    3   0.0380  -0.0067 147.0011  0.02502  -8.1739E-03  6.8816E-04  8.2028E-03  175.188
  5902    3   0.0380  -0.0067 147.0261  0.02502  -7.1973E-03  7.6547E-04  7.2379E-03  173.929
  5903    3   0.0380  -0.0067 147.0511  0.02502  -6.0400E-03  8.2013E-04  6.0954E-03  172.268
  5904    3   0.0380  -0.0067 147.0762  0.02502  -4.7299E-03  8.5117E-04  4.8059E-03  169.799
  5905    3   0.0380  -0.0067 147.1012  0.02502  -3.2987E-03  8.5834E-04  3.4086E-03  165.415
  5906    3   0.0380  -0.0067 147.1262  0.02502  -1.7810E-03  8.4206E-04  1.9700E-03  154.695
  5907    3   0.0380  -0.0067 147.1512  0.02502  -2.1370E-04  8.0346E-04  8.3140E-04  104.895
  5908    3   0.0380  -0.0067 147.1762  0.02502   1.3650E-03  7.4434E-04  1.5548E-03   28.603
  5909    3   0.0380  -0.0067 147.2012  0.02502   2.9166E-03  6.6709E-04  2.9920E-03   12.883
  5910    3   0.0380  -0.0067 147.2263  0.02502   4.4031E-03  5.7465E-04  4.4405E-03    7.436
  5911    3   0.0380  -0.0067 147.2513  0.02502   5.7880E-03  4.7044E-04  5.8071E-03    4.647
  5912    3   0.0380  -0.0067 147.2763  0.02502   7.0371E-03  3.5822E-04  7.0462E-03    2.914
  5913    3   0.0380  -0.0067 147.3013  0.02502   8.1194E-03  2.4204E-04  8.1230E-03    1.707
  5914    3   0.0380  -0.0067 147.3263  0.02502   9.0080E-03  1.2608E-04  9.0089E-03    0.802
  5915    3   0.0380  -0.0067 147.3514  0.02502   9.6803E-03  1.4590E-05  9.6803E-03    0.086
  5916    3   0.0380  -0.0067 147.3764  0.02502   1.0119E-02 -8.8298E-05  1.0120E-02   -0.500
  5917    3   0.0380  -0.0067 147.4014  0.02502   1.0313E-02 -1.7863E-04  1.0314E-02   -0.992
  5918    3   0.0380  -0.0067 147.4264  0.02502   1.0255E-02 -2.5275E-04  1.0258E-02   -1.412
  5919    3   0.0380  -0.0067 147.4514  0.02502   9.9465E-03 -3.0743E-04  9.9513E-03   -1.770
  5920    3   0.0380  -0.0067 147.4764  0.02502   9.3927E-03 -3.3993E-04  9.3989E-03   -2.073
  5921    3   0.0380  -0.0067 147.5015  0.02502   8.6056E-03 -3.4808E-04  8.6127E-03   -2.316
  5922    3   0.0380  -0.0067 147.5265  0.02502   7.6027E-03 -3.3033E-04  7.6099E-03   -2.488
  5923    3   0.0380  -0.0067 147.5515  0.02502   6.4068E-03 -2.8583E-04  6.4131E-03   -2.555
  5924    3   0.0380  -0.0067 147.5765  0.02502   5.0456E-03 -2.1441E-04  5.0501E-03   -2.433
  5925    3   0.0380  -0.0067 147.6015  0.02502   3.5522E-03 -1.1661E-04  3.5541E-03   -1.880
  5926    3   0.0380  -0.0067 147.6265  0.02502   1.9637E-03  6.5069E-06  1.9637E-03    0.190
  5927    3   0.0380  -0.0067 147.6516  0.02502   4.0162E-04  1.4583E-04  4.2727E-04   19.956



                                        - - - POWER BUDGET - - -

                                           INPUT POWER   = 1.3274E-03 WATTS
                                           RADIATED POWER= 4.6719E-04 WATTS
                                           STRUCTURE LOSS= 8.6019E-04 WATTS
                                           NETWORK LOSS  = 0.0000E+00 WATTS
                                           EFFICIENCY    =  35.20 PERCENT



                                                - - - RADIATION PATTERNS - - -

  - - ANGLES - -           - POWER GAINS -       - - - POLARIZATION - - -    - - - E(THETA) - - -    - - - E(PHI) - - -
  THETA     PHI        VERT.   HOR.    TOTAL      AXIAL     TILT   SENSE     MAGNITUDE    PHASE      MAGNITUDE    PHASE 
 DEGREES  DEGREES       DB      DB      DB        RATIO     DEG.              VOLTS/M    DEGREES      VOLTS/M    DEGREES
   85.00    90.00       6.12   -0.07    7.05    0.29449    21.62  RIGHT     5.70552E-01   -16.52    2.79817E-01   -59.79






 ***** DATA CARD NO.  7   EN   0     1     1  1000  8.50000E+01  9.00000E+01  0.00000E+00  0.00000E+00  0.00000E+00  0.00000E+00

 RUN TIME =   398.734
