1



                                 *********************************************

                                    NUMERICAL ELECTROMAGNETICS CODE (NEC-2D)

                                 *********************************************




                                     - - - - COMMENTS - - - -


                          No comments specified                                                      
                                                                                                     




                                 - - - STRUCTURE SPECIFICATION - - -

                                     COORDINATES MUST BE INPUT IN
                                     METERS OR BE SCALED TO METERS
                                     BEFORE STRUCTURE INPUT IS ENDED


  WIRE                                                                               NO. OF    FIRST  LAST     TAG
  NO.        X1         Y1         Z1          X2         Y2         Z2      RADIUS   SEG.     SEG.   SEG.     NO.
     1    0.07500    0.00000    0.00000     0.07400    0.01300    0.00200    0.00100      1        1     1       1
     2    0.07400    0.01300    0.00200     0.07000    0.02600    0.00400    0.00100      1        2     2       1
     3    0.07000    0.02600    0.00400     0.06500    0.03700    0.00600    0.00100      1        3     3       1
     4    0.06500    0.03700    0.00600     0.05700    0.04800    0.00700    0.00100      1        4     4       1
     5    0.05700    0.04800    0.00700     0.04800    0.05700    0.00900    0.00100      1        5     5       1
     6    0.04800    0.05700    0.00900     0.03700    0.06500    0.01100    0.00100      1        6     6       1
     7    0.03700    0.06500    0.01100     0.02600    0.07000    0.01300    0.00100      1        7     7       1
     8    0.02600    0.07000    0.01300     0.01300    0.07400    0.01500    0.00100      1        8     8       1
     9    0.01300    0.07400    0.01500     0.00000    0.07500    0.01700    0.00100      1        9     9       1
    10    0.00000    0.07500    0.01700    -0.01300    0.07400    0.01900    0.00100      1       10    10       1
    11   -0.01300    0.07400    0.01900    -0.02600    0.07000    0.02000    0.00100      1       11    11       1
    12   -0.02600    0.07000    0.02000    -0.03700    0.06500    0.02200    0.00100      1       12    12       1
    13   -0.03700    0.06500    0.02200    -0.04800    0.05700    0.02400    0.00100      1       13    13       1
    14   -0.04800    0.05700    0.02400    -0.05700    0.04800    0.02600    0.00100      1       14    14       1
    15   -0.05700    0.04800    0.02600    -0.06500    0.03700    0.02800    0.00100      1       15    15       1
    16   -0.06500    0.03700    0.02800    -0.07000    0.02600    0.03000    0.00100      1       16    16       1
    17   -0.07000    0.02600    0.03000    -0.07400    0.01300    0.03100    0.00100      1       17    17       1
    18   -0.07400    0.01300    0.03100    -0.07500    0.00000    0.03300    0.00100      1       18    18       1
    19   -0.07500    0.00000    0.03300    -0.07400   -0.01300    0.03500    0.00100      1       19    19       1
    20   -0.07400   -0.01300    0.03500    -0.07000   -0.02600    0.03700    0.00100      1       20    20       1
    21   -0.07000   -0.02600    0.03700    -0.06500   -0.03700    0.03900    0.00100      1       21    21       1
    22   -0.06500   -0.03700    0.03900    -0.05700   -0.04800    0.04100    0.00100      1       22    22       1
    23   -0.05700   -0.04800    0.04100    -0.04800   -0.05700    0.04300    0.00100      1       23    23       1
    24   -0.04800   -0.05700    0.04300    -0.03700   -0.06500    0.04400    0.00100      1       24    24       1
    25   -0.03700   -0.06500    0.04400    -0.02600   -0.07000    0.04600    0.00100      1       25    25       1
    26   -0.02600   -0.07000    0.04600    -0.01300   -0.07400    0.04800    0.00100      1       26    26       1
    27   -0.01300   -0.07400    0.04800     0.00000   -0.07500    0.05000    0.00100      1       27    27       1
    28    0.00000   -0.07500    0.05000     0.01300   -0.07400    0.05200    0.00100      1       28    28       1
    29    0.01300   -0.07400    0.05200     0.02600   -0.07000    0.05400    0.00100      1       29    29       1
    30    0.02600   -0.07000    0.05400     0.03700   -0.06500    0.05600    0.00100      1       30    30       1
    31    0.03700   -0.06500    0.05600     0.04800   -0.05700    0.05700    0.00100      1       31    31       1
    32    0.04800   -0.05700    0.05700     0.05700   -0.04800    0.05900    0.00100      1       32    32       1
    33    0.05700   -0.04800    0.05900     0.06500   -0.03700    0.06100    0.00100      1       33    33       1
    34    0.06500   -0.03700    0.06100     0.07000   -0.02600    0.06300    0.00100      1       34    34       1
    35    0.07000   -0.02600    0.06300     0.07400   -0.01300    0.06500    0.00100      1       35    35       1
    36    0.07400   -0.01300    0.06500     0.07500    0.00000    0.06700    0.00100      1       36    36       1
    37    0.07500    0.00000    0.06700     0.07400    0.01300    0.06900    0.00100      1       37    37       1
    38    0.07400    0.01300    0.06900     0.07000    0.02600    0.07000    0.00100      1       38    38       1
    39    0.07000    0.02600    0.07000     0.06500    0.03700    0.07200    0.00100      1       39    39       1
    40    0.06500    0.03700    0.07200     0.05700    0.04800    0.07400    0.00100      1       40    40       1
    41    0.05700    0.04800    0.07400     0.04800    0.05700    0.07600    0.00100      1       41    41       1
    42    0.04800    0.05700    0.07600     0.03700    0.06500    0.07800    0.00100      1       42    42       1
    43    0.03700    0.06500    0.07800     0.02600    0.07000    0.08000    0.00100      1       43    43       1
    44    0.02600    0.07000    0.08000     0.01300    0.07400    0.08200    0.00100      1       44    44       1
    45    0.01300    0.07400    0.08200     0.00000    0.07500    0.08300    0.00100      1       45    45       1
    46    0.00000    0.07500    0.08300    -0.01300    0.07400    0.08500    0.00100      1       46    46       1
    47   -0.01300    0.07400    0.08500    -0.02600    0.07000    0.08700    0.00100      1       47    47       1
    48   -0.02600    0.07000    0.08700    -0.03700    0.06500    0.08900    0.00100      1       48    48       1
    49   -0.03700    0.06500    0.08900    -0.04800    0.05700    0.09100    0.00100      1       49    49       1
    50   -0.04800    0.05700    0.09100    -0.05700    0.04800    0.09300    0.00100      1       50    50       1
    51   -0.05700    0.04800    0.09300    -0.06500    0.03700    0.09400    0.00100      1       51    51       1
    52   -0.06500    0.03700    0.09400    -0.07000    0.02600    0.09600    0.00100      1       52    52       1
    53   -0.07000    0.02600    0.09600    -0.07400    0.01300    0.09800    0.00100      1       53    53       1
    54   -0.07400    0.01300    0.09800    -0.07500    0.00000    0.10000    0.00100      1       54    54       1
    55   -0.07500    0.00000    0.10000    -0.07400   -0.01300    0.10200    0.00100      1       55    55       1
    56   -0.07400   -0.01300    0.10200    -0.07000   -0.02600    0.10400    0.00100      1       56    56       1
    57   -0.07000   -0.02600    0.10400    -0.06500   -0.03700    0.10600    0.00100      1       57    57       1
    58   -0.06500   -0.03700    0.10600    -0.05700   -0.04800    0.10700    0.00100      1       58    58       1
    59   -0.05700   -0.04800    0.10700    -0.04800   -0.05700    0.10900    0.00100      1       59    59       1
    60   -0.04800   -0.05700    0.10900    -0.03700   -0.06500    0.11100    0.00100      1       60    60       1
    61   -0.03700   -0.06500    0.11100    -0.02600   -0.07000    0.11300    0.00100      1       61    61       1
    62   -0.02600   -0.07000    0.11300    -0.01300   -0.07400    0.11500    0.00100      1       62    62       1
    63   -0.01300   -0.07400    0.11500     0.00000   -0.07500    0.11700    0.00100      1       63    63       1
    64    0.00000   -0.07500    0.11700     0.01300   -0.07400    0.11900    0.00100      1       64    64       1
    65    0.01300   -0.07400    0.11900     0.02600   -0.07000    0.12000    0.00100      1       65    65       1
    66    0.02600   -0.07000    0.12000     0.03700   -0.06500    0.12200    0.00100      1       66    66       1
    67    0.03700   -0.06500    0.12200     0.04800   -0.05700    0.12400    0.00100      1       67    67       1
    68    0.04800   -0.05700    0.12400     0.05700   -0.04800    0.12600    0.00100      1       68    68       1
    69    0.05700   -0.04800    0.12600     0.06500   -0.03700    0.12800    0.00100      1       69    69       1
    70    0.06500   -0.03700    0.12800     0.07000   -0.02600    0.13000    0.00100      1       70    70       1
    71    0.07000   -0.02600    0.13000     0.07400   -0.01300    0.13200    0.00100      1       71    71       1
    72    0.07400   -0.01300    0.13200     0.07500    0.00000    0.13300    0.00100      1       72    72       1
    73    0.07100    0.00000    0.06900     0.07000    0.00700    0.06900    0.00100      1       73    73     999
    74    0.07000    0.00700    0.06900     0.06800    0.01400    0.06900    0.00100      1       74    74       4
    75    0.06800    0.01400    0.06900     0.06500    0.02000    0.06900    0.00100      1       75    75       4
    76    0.06500    0.02000    0.06900     0.06100    0.02600    0.06900    0.00100      1       76    76       4
    77    0.06100    0.02600    0.06900     0.05600    0.03100    0.06900    0.00100      1       77    77       4
    78    0.05600    0.03100    0.06900     0.05000    0.03500    0.06900    0.00100      1       78    78       4
    79    0.05000    0.03500    0.06900     0.04400    0.03800    0.06900    0.00100      1       79    79       4
    80    0.04400    0.03800    0.06900     0.03700    0.04000    0.06900    0.00100      1       80    80       4
    81    0.03700    0.04000    0.06900     0.03000    0.04100    0.06900    0.00100      1       81    81       4
    82    0.03000    0.04100    0.06900     0.02300    0.04000    0.06900    0.00100      1       82    82       4
    83    0.02300    0.04000    0.06900     0.01600    0.03800    0.06900    0.00100      1       83    83       4
    84    0.01600    0.03800    0.06900     0.01000    0.03500    0.06900    0.00100      1       84    84       4
    85    0.01000    0.03500    0.06900     0.00400    0.03100    0.06900    0.00100      1       85    85       4
    86    0.00400    0.03100    0.06900    -0.00100    0.02600    0.06900    0.00100      1       86    86       4
    87   -0.00100    0.02600    0.06900    -0.00500    0.02000    0.06900    0.00100      1       87    87       4
    88   -0.00500    0.02000    0.06900    -0.00800    0.01400    0.06900    0.00100      1       88    88       4
    89   -0.00800    0.01400    0.06900    -0.01000    0.00700    0.06900    0.00100      1       89    89       4
    90   -0.01000    0.00700    0.06900    -0.01100    0.00000    0.06900    0.00100      1       90    90       4
    91   -0.01100    0.00000    0.06900    -0.01000   -0.00700    0.06900    0.00100      1       91    91       4
    92   -0.01000   -0.00700    0.06900    -0.00800   -0.01400    0.06900    0.00100      1       92    92       4
    93   -0.00800   -0.01400    0.06900    -0.00500   -0.02000    0.06900    0.00100      1       93    93       4
    94   -0.00500   -0.02000    0.06900    -0.00100   -0.02600    0.06900    0.00100      1       94    94       4
    95   -0.00100   -0.02600    0.06900     0.00400   -0.03100    0.06900    0.00100      1       95    95       4
    96    0.00400   -0.03100    0.06900     0.01000   -0.03500    0.06900    0.00100      1       96    96       4
    97    0.01000   -0.03500    0.06900     0.01600   -0.03800    0.06900    0.00100      1       97    97       4
    98    0.01600   -0.03800    0.06900     0.02300   -0.04000    0.06900    0.00100      1       98    98       4
    99    0.02300   -0.04000    0.06900     0.03000   -0.04100    0.06900    0.00100      1       99    99       4
   100    0.03000   -0.04100    0.06900     0.03700   -0.04000    0.06900    0.00100      1      100   100       4
   101    0.03700   -0.04000    0.06900     0.04400   -0.03800    0.06900    0.00100      1      101   101       4
   102    0.04400   -0.03800    0.06900     0.05000   -0.03500    0.06900    0.00100      1      102   102       4
   103    0.05000   -0.03500    0.06900     0.05600   -0.03100    0.06900    0.00100      1      103   103       4
   104    0.05600   -0.03100    0.06900     0.06100   -0.02600    0.06900    0.00100      1      104   104       4
   105    0.06100   -0.02600    0.06900     0.06500   -0.02000    0.06900    0.00100      1      105   105       4
   106    0.06500   -0.02000    0.06900     0.06800   -0.01400    0.06900    0.00100      1      106   106       4
   107    0.06800   -0.01400    0.06900     0.07000   -0.00700    0.06900    0.00100      1      107   107       4
   108    0.07000   -0.00700    0.06900     0.07100    0.00000    0.06900    0.00100      1      108   108       4
   109    0.07500    0.00000    0.25300     0.07400   -0.01300    0.25500    0.00100      1      109   109       2
   110    0.07400   -0.01300    0.25500     0.07000   -0.02600    0.25700    0.00100      1      110   110       2
   111    0.07000   -0.02600    0.25700     0.06500   -0.03700    0.25900    0.00100      1      111   111       2
   112    0.06500   -0.03700    0.25900     0.05700   -0.04800    0.26100    0.00100      1      112   112       2
   113    0.05700   -0.04800    0.26100     0.04800   -0.05700    0.26300    0.00100      1      113   113       2
   114    0.04800   -0.05700    0.26300     0.03700   -0.06500    0.26500    0.00100      1      114   114       2
   115    0.03700   -0.06500    0.26500     0.02600   -0.07000    0.26600    0.00100      1      115   115       2
   116    0.02600   -0.07000    0.26600     0.01300   -0.07400    0.26800    0.00100      1      116   116       2
   117    0.01300   -0.07400    0.26800     0.00000   -0.07500    0.27000    0.00100      1      117   117       2
   118    0.00000   -0.07500    0.27000    -0.01300   -0.07400    0.27200    0.00100      1      118   118       2
   119   -0.01300   -0.07400    0.27200    -0.02600   -0.07000    0.27400    0.00100      1      119   119       2
   120   -0.02600   -0.07000    0.27400    -0.03700   -0.06500    0.27600    0.00100      1      120   120       2
   121   -0.03700   -0.06500    0.27600    -0.04800   -0.05700    0.27700    0.00100      1      121   121       2
   122   -0.04800   -0.05700    0.27700    -0.05700   -0.04800    0.27900    0.00100      1      122   122       2
   123   -0.05700   -0.04800    0.27900    -0.06500   -0.03700    0.28100    0.00100      1      123   123       2
   124   -0.06500   -0.03700    0.28100    -0.07000   -0.02600    0.28300    0.00100      1      124   124       2
   125   -0.07000   -0.02600    0.28300    -0.07400   -0.01300    0.28500    0.00100      1      125   125       2
   126   -0.07400   -0.01300    0.28500    -0.07500    0.00000    0.28700    0.00100      1      126   126       2
   127   -0.07500    0.00000    0.28700    -0.07400    0.01300    0.28900    0.00100      1      127   127       2
   128   -0.07400    0.01300    0.28900    -0.07000    0.02600    0.29000    0.00100      1      128   128       2
   129   -0.07000    0.02600    0.29000    -0.06500    0.03700    0.29200    0.00100      1      129   129       2
   130   -0.06500    0.03700    0.29200    -0.05700    0.04800    0.29400    0.00100      1      130   130       2
   131   -0.05700    0.04800    0.29400    -0.04800    0.05700    0.29600    0.00100      1      131   131       2
   132   -0.04800    0.05700    0.29600    -0.03700    0.06500    0.29800    0.00100      1      132   132       2
   133   -0.03700    0.06500    0.29800    -0.02600    0.07000    0.30000    0.00100      1      133   133       2
   134   -0.02600    0.07000    0.30000    -0.01300    0.07400    0.30200    0.00100      1      134   134       2
   135   -0.01300    0.07400    0.30200     0.00000    0.07500    0.30300    0.00100      1      135   135       2
   136    0.00000    0.07500    0.30300     0.01300    0.07400    0.30500    0.00100      1      136   136       2
   137    0.01300    0.07400    0.30500     0.02600    0.07000    0.30700    0.00100      1      137   137       2
   138    0.02600    0.07000    0.30700     0.03700    0.06500    0.30900    0.00100      1      138   138       2
   139    0.03700    0.06500    0.30900     0.04800    0.05700    0.31100    0.00100      1      139   139       2
   140    0.04800    0.05700    0.31100     0.05700    0.04800    0.31300    0.00100      1      140   140       2
   141    0.05700    0.04800    0.31300     0.06500    0.03700    0.31500    0.00100      1      141   141       2
   142    0.06500    0.03700    0.31500     0.07000    0.02600    0.31600    0.00100      1      142   142       2
   143    0.07000    0.02600    0.31600     0.07400    0.01300    0.31800    0.00100      1      143   143       2
   144    0.07400    0.01300    0.31800     0.07500    0.00000    0.32000    0.00100      1      144   144       2
   145    0.07500    0.00000    0.32000     0.07400   -0.01300    0.32200    0.00100      1      145   145       2
   146    0.07400   -0.01300    0.32200     0.07000   -0.02600    0.32400    0.00100      1      146   146       2
   147    0.07000   -0.02600    0.32400     0.06500   -0.03700    0.32600    0.00100      1      147   147       2
   148    0.06500   -0.03700    0.32600     0.05700   -0.04800    0.32800    0.00100      1      148   148       2
   149    0.05700   -0.04800    0.32800     0.04800   -0.05700    0.32900    0.00100      1      149   149       2
   150    0.04800   -0.05700    0.32900     0.03700   -0.06500    0.33100    0.00100      1      150   150       2
   151    0.03700   -0.06500    0.33100     0.02600   -0.07000    0.33300    0.00100      1      151   151       2
   152    0.02600   -0.07000    0.33300     0.01300   -0.07400    0.33500    0.00100      1      152   152       2
   153    0.01300   -0.07400    0.33500     0.00000   -0.07500    0.33700    0.00100      1      153   153       2
   154    0.00000   -0.07500    0.33700    -0.01300   -0.07400    0.33900    0.00100      1      154   154       2
   155   -0.01300   -0.07400    0.33900    -0.02600   -0.07000    0.34000    0.00100      1      155   155       2
   156   -0.02600   -0.07000    0.34000    -0.03700   -0.06500    0.34200    0.00100      1      156   156       2
   157   -0.03700   -0.06500    0.34200    -0.04800   -0.05700    0.34400    0.00100      1      157   157       2
   158   -0.04800   -0.05700    0.34400    -0.05700   -0.04800    0.34600    0.00100      1      158   158       2
   159   -0.05700   -0.04800    0.34600    -0.06500   -0.03700    0.34800    0.00100      1      159   159       2
   160   -0.06500   -0.03700    0.34800    -0.07000   -0.02600    0.35000    0.00100      1      160   160       2
   161   -0.07000   -0.02600    0.35000    -0.07400   -0.01300    0.35200    0.00100      1      161   161       2
   162   -0.07400   -0.01300    0.35200    -0.07500    0.00000    0.35300    0.00100      1      162   162       2
   163   -0.07500    0.00000    0.35300    -0.07400    0.01300    0.35500    0.00100      1      163   163       2
   164   -0.07400    0.01300    0.35500    -0.07000    0.02600    0.35700    0.00100      1      164   164       2
   165   -0.07000    0.02600    0.35700    -0.06500    0.03700    0.35900    0.00100      1      165   165       2
   166   -0.06500    0.03700    0.35900    -0.05700    0.04800    0.36100    0.00100      1      166   166       2
   167   -0.05700    0.04800    0.36100    -0.04800    0.05700    0.36300    0.00100      1      167   167       2
   168   -0.04800    0.05700    0.36300    -0.03700    0.06500    0.36500    0.00100      1      168   168       2
   169   -0.03700    0.06500    0.36500    -0.02600    0.07000    0.36600    0.00100      1      169   169       2
   170   -0.02600    0.07000    0.36600    -0.01300    0.07400    0.36800    0.00100      1      170   170       2
   171   -0.01300    0.07400    0.36800     0.00000    0.07500    0.37000    0.00100      1      171   171       2
   172    0.00000    0.07500    0.37000     0.01300    0.07400    0.37200    0.00100      1      172   172       2
   173    0.01300    0.07400    0.37200     0.02600    0.07000    0.37400    0.00100      1      173   173       2
   174    0.02600    0.07000    0.37400     0.03700    0.06500    0.37600    0.00100      1      174   174       2
   175    0.03700    0.06500    0.37600     0.04800    0.05700    0.37800    0.00100      1      175   175       2
   176    0.04800    0.05700    0.37800     0.05700    0.04800    0.37900    0.00100      1      176   176       2
   177    0.05700    0.04800    0.37900     0.06500    0.03700    0.38100    0.00100      1      177   177       2
   178    0.06500    0.03700    0.38100     0.07000    0.02600    0.38300    0.00100      1      178   178       2
   179    0.07000    0.02600    0.38300     0.07400    0.01300    0.38500    0.00100      1      179   179       2
   180    0.07400    0.01300    0.38500     0.07500    0.00000    0.38700    0.00100      1      180   180       2
   181    0.07500    0.00000    0.13300     0.07500    0.00000    0.25300    0.00100      2      181   182       3
      THE STRUCTURE HAS BEEN MOVED, MOVE DATA CARD IS -
        0    0   0.00000   0.00000   0.00000   0.00000   0.00000   8.00000   0.00000

   GROUND PLANE SPECIFIED.

   WHERE WIRE ENDS TOUCH GROUND, CURRENT WILL BE INTERPOLATED TO IMAGE IN GROUND PLANE.


   TOTAL SEGMENTS USED=  182     NO. SEG. IN A SYMMETRIC CELL=  182     SYMMETRY FLAG=  0


         - MULTIPLE WIRE JUNCTIONS -
 JUNCTION    SEGMENTS  (- FOR END 1, + FOR END 2)
  NONE




                                 - - - - SEGMENTATION DATA - - - -

                                        COORDINATES IN METERS

                         I+ AND I- INDICATE THE SEGMENTS BEFORE AND AFTER I


  SEG.   COORDINATES OF SEG. CENTER     SEG.     ORIENTATION ANGLES    WIRE    CONNECTION DATA   TAG
  NO.       X         Y         Z       LENGTH     ALPHA     BETA      RADIUS    I-   I    I+    NO.
     1   0.07450   0.00650   8.00100   0.01319    8.72080  94.39871   0.00100     0    1    2      1
     2   0.07200   0.01950   8.00300   0.01375    8.36499 107.10273   0.00100     1    2    3      1
     3   0.06750   0.03150   8.00500   0.01225    9.39845 114.44395   0.00100     2    3    4      1
     4   0.06100   0.04250   8.00650   0.01364    4.20490 126.02737   0.00100     3    4    5      1
     5   0.05250   0.05250   8.00800   0.01288    8.93014 135.00000   0.00100     4    5    6      1
     6   0.04250   0.06100   8.01000   0.01375    8.36499 143.97263   0.00100     5    6    7      1
     7   0.03150   0.06750   8.01200   0.01225    9.39845 155.55605   0.00100     6    7    8      1
     8   0.01950   0.07200   8.01400   0.01375    8.36499 162.89727   0.00100     7    8    9      1
     9   0.00650   0.07450   8.01600   0.01319    8.72080 175.60129   0.00100     8    9   10      1
    10  -0.00650   0.07450   8.01800   0.01319    8.72080-175.60129   0.00100     9   10   11      1
    11  -0.01950   0.07200   8.01950   0.01364    4.20490-162.89727   0.00100    10   11   12      1
    12  -0.03150   0.06750   8.02100   0.01225    9.39845-155.55605   0.00100    11   12   13      1
    13  -0.04250   0.06100   8.02300   0.01375    8.36499-143.97263   0.00100    12   13   14      1
    14  -0.05250   0.05250   8.02500   0.01288    8.93014-135.00000   0.00100    13   14   15      1
    15  -0.06100   0.04250   8.02700   0.01375    8.36499-126.02737   0.00100    14   15   16      1
    16  -0.06750   0.03150   8.02900   0.01225    9.39845-114.44395   0.00100    15   16   17      1
    17  -0.07200   0.01950   8.03050   0.01364    4.20490-107.10273   0.00100    16   17   18      1
    18  -0.07450   0.00650   8.03200   0.01319    8.72080 -94.39871   0.00100    17   18   19      1
    19  -0.07450  -0.00650   8.03400   0.01319    8.72080 -85.60129   0.00100    18   19   20      1
    20  -0.07200  -0.01950   8.03600   0.01375    8.36499 -72.89727   0.00100    19   20   21      1
    21  -0.06750  -0.03150   8.03800   0.01225    9.39845 -65.55605   0.00100    20   21   22      1
    22  -0.06100  -0.04250   8.04000   0.01375    8.36499 -53.97263   0.00100    21   22   23      1
    23  -0.05250  -0.05250   8.04200   0.01288    8.93014 -45.00000   0.00100    22   23   24      1
    24  -0.04250  -0.06100   8.04350   0.01364    4.20490 -36.02737   0.00100    23   24   25      1
    25  -0.03150  -0.06750   8.04500   0.01225    9.39845 -24.44395   0.00100    24   25   26      1
    26  -0.01950  -0.07200   8.04700   0.01375    8.36499 -17.10273   0.00100    25   26   27      1
    27  -0.00650  -0.07450   8.04900   0.01319    8.72080  -4.39871   0.00100    26   27   28      1
    28   0.00650  -0.07450   8.05100   0.01319    8.72080   4.39871   0.00100    27   28   29      1
    29   0.01950  -0.07200   8.05300   0.01375    8.36499  17.10273   0.00100    28   29   30      1
    30   0.03150  -0.06750   8.05500   0.01225    9.39845  24.44395   0.00100    29   30   31      1
    31   0.04250  -0.06100   8.05650   0.01364    4.20490  36.02737   0.00100    30   31   32      1
    32   0.05250  -0.05250   8.05800   0.01288    8.93014  45.00000   0.00100    31   32   33      1
    33   0.06100  -0.04250   8.06000   0.01375    8.36499  53.97263   0.00100    32   33   34      1
    34   0.06750  -0.03150   8.06200   0.01225    9.39845  65.55605   0.00100    33   34   35      1
    35   0.07200  -0.01950   8.06400   0.01375    8.36499  72.89727   0.00100    34   35   36      1
    36   0.07450  -0.00650   8.06600   0.01319    8.72080  85.60129   0.00100    35   36   37      1
    37   0.07450   0.00650   8.06800   0.01319    8.72080  94.39871   0.00100    36   37   38      1
    38   0.07200   0.01950   8.06950   0.01364    4.20490 107.10273   0.00100    37   38   39      1
    39   0.06750   0.03150   8.07100   0.01225    9.39845 114.44395   0.00100    38   39   40      1
    40   0.06100   0.04250   8.07300   0.01375    8.36499 126.02737   0.00100    39   40   41      1
    41   0.05250   0.05250   8.07500   0.01288    8.93014 135.00000   0.00100    40   41   42      1
    42   0.04250   0.06100   8.07700   0.01375    8.36499 143.97263   0.00100    41   42   43      1
    43   0.03150   0.06750   8.07900   0.01225    9.39845 155.55605   0.00100    42   43   44      1
    44   0.01950   0.07200   8.08100   0.01375    8.36499 162.89727   0.00100    43   44   45      1
    45   0.00650   0.07450   8.08250   0.01308    4.38580 175.60129   0.00100    44   45   46      1
    46  -0.00650   0.07450   8.08400   0.01319    8.72080-175.60129   0.00100    45   46   47      1
    47  -0.01950   0.07200   8.08600   0.01375    8.36499-162.89727   0.00100    46   47   48      1
    48  -0.03150   0.06750   8.08800   0.01225    9.39845-155.55605   0.00100    47   48   49      1
    49  -0.04250   0.06100   8.09000   0.01375    8.36499-143.97263   0.00100    48   49   50      1
    50  -0.05250   0.05250   8.09200   0.01288    8.93014-135.00000   0.00100    49   50   51      1
    51  -0.06100   0.04250   8.09350   0.01364    4.20490-126.02737   0.00100    50   51   52      1
    52  -0.06750   0.03150   8.09500   0.01225    9.39845-114.44395   0.00100    51   52   53      1
    53  -0.07200   0.01950   8.09700   0.01375    8.36499-107.10273   0.00100    52   53   54      1
    54  -0.07450   0.00650   8.09900   0.01319    8.72080 -94.39871   0.00100    53   54   55      1
    55  -0.07450  -0.00650   8.10100   0.01319    8.72080 -85.60129   0.00100    54   55   56      1
    56  -0.07200  -0.01950   8.10300   0.01375    8.36499 -72.89727   0.00100    55   56   57      1
    57  -0.06750  -0.03150   8.10500   0.01225    9.39845 -65.55605   0.00100    56   57   58      1
    58  -0.06100  -0.04250   8.10650   0.01364    4.20490 -53.97263   0.00100    57   58   59      1
    59  -0.05250  -0.05250   8.10800   0.01288    8.93014 -45.00000   0.00100    58   59   60      1
    60  -0.04250  -0.06100   8.11000   0.01375    8.36499 -36.02737   0.00100    59   60   61      1
    61  -0.03150  -0.06750   8.11200   0.01225    9.39845 -24.44395   0.00100    60   61   62      1
    62  -0.01950  -0.07200   8.11400   0.01375    8.36499 -17.10273   0.00100    61   62   63      1
    63  -0.00650  -0.07450   8.11600   0.01319    8.72080  -4.39871   0.00100    62   63   64      1
    64   0.00650  -0.07450   8.11800   0.01319    8.72080   4.39871   0.00100    63   64   65      1
    65   0.01950  -0.07200   8.11950   0.01364    4.20490  17.10273   0.00100    64   65   66      1
    66   0.03150  -0.06750   8.12100   0.01225    9.39845  24.44395   0.00100    65   66   67      1
    67   0.04250  -0.06100   8.12300   0.01375    8.36499  36.02737   0.00100    66   67   68      1
    68   0.05250  -0.05250   8.12500   0.01288    8.93014  45.00000   0.00100    67   68   69      1
    69   0.06100  -0.04250   8.12700   0.01375    8.36499  53.97263   0.00100    68   69   70      1
    70   0.06750  -0.03150   8.12900   0.01225    9.39845  65.55605   0.00100    69   70   71      1
    71   0.07200  -0.01950   8.13100   0.01375    8.36499  72.89727   0.00100    70   71   72      1
    72   0.07450  -0.00650   8.13250   0.01308    4.38580  85.60129   0.00100    71   72  181      1
    73   0.07050   0.00350   8.06900   0.00707    0.00000  98.13010   0.00100   108   73   74    999
    74   0.06900   0.01050   8.06900   0.00728    0.00000 105.94540   0.00100    73   74   75      4
    75   0.06650   0.01700   8.06900   0.00671    0.00000 116.56505   0.00100    74   75   76      4
    76   0.06300   0.02300   8.06900   0.00721    0.00000 123.69007   0.00100    75   76   77      4
    77   0.05850   0.02850   8.06900   0.00707    0.00000 135.00000   0.00100    76   77   78      4
    78   0.05300   0.03300   8.06900   0.00721    0.00000 146.30993   0.00100    77   78   79      4
    79   0.04700   0.03650   8.06900   0.00671    0.00000 153.43495   0.00100    78   79   80      4
    80   0.04050   0.03900   8.06900   0.00728    0.00000 164.05460   0.00100    79   80   81      4
    81   0.03350   0.04050   8.06900   0.00707    0.00000 171.86990   0.00100    80   81   82      4
    82   0.02650   0.04050   8.06900   0.00707    0.00000-171.86990   0.00100    81   82   83      4
    83   0.01950   0.03900   8.06900   0.00728    0.00000-164.05460   0.00100    82   83   84      4
    84   0.01300   0.03650   8.06900   0.00671    0.00000-153.43495   0.00100    83   84   85      4
    85   0.00700   0.03300   8.06900   0.00721    0.00000-146.30993   0.00100    84   85   86      4
    86   0.00150   0.02850   8.06900   0.00707    0.00000-135.00000   0.00100    85   86   87      4
    87  -0.00300   0.02300   8.06900   0.00721    0.00000-123.69007   0.00100    86   87   88      4
    88  -0.00650   0.01700   8.06900   0.00671    0.00000-116.56505   0.00100    87   88   89      4
    89  -0.00900   0.01050   8.06900   0.00728    0.00000-105.94540   0.00100    88   89   90      4
    90  -0.01050   0.00350   8.06900   0.00707    0.00000 -98.13010   0.00100    89   90   91      4
    91  -0.01050  -0.00350   8.06900   0.00707    0.00000 -81.86990   0.00100    90   91   92      4
    92  -0.00900  -0.01050   8.06900   0.00728    0.00000 -74.05460   0.00100    91   92   93      4
    93  -0.00650  -0.01700   8.06900   0.00671    0.00000 -63.43495   0.00100    92   93   94      4
    94  -0.00300  -0.02300   8.06900   0.00721    0.00000 -56.30993   0.00100    93   94   95      4
    95   0.00150  -0.02850   8.06900   0.00707    0.00000 -45.00000   0.00100    94   95   96      4
    96   0.00700  -0.03300   8.06900   0.00721    0.00000 -33.69007   0.00100    95   96   97      4
    97   0.01300  -0.03650   8.06900   0.00671    0.00000 -26.56505   0.00100    96   97   98      4
    98   0.01950  -0.03900   8.06900   0.00728    0.00000 -15.94540   0.00100    97   98   99      4
    99   0.02650  -0.04050   8.06900   0.00707    0.00000  -8.13010   0.00100    98   99  100      4
   100   0.03350  -0.04050   8.06900   0.00707    0.00000   8.13010   0.00100    99  100  101      4
   101   0.04050  -0.03900   8.06900   0.00728    0.00000  15.94540   0.00100   100  101  102      4
   102   0.04700  -0.03650   8.06900   0.00671    0.00000  26.56505   0.00100   101  102  103      4
   103   0.05300  -0.03300   8.06900   0.00721    0.00000  33.69007   0.00100   102  103  104      4
   104   0.05850  -0.02850   8.06900   0.00707    0.00000  45.00000   0.00100   103  104  105      4
   105   0.06300  -0.02300   8.06900   0.00721    0.00000  56.30993   0.00100   104  105  106      4
   106   0.06650  -0.01700   8.06900   0.00671    0.00000  63.43495   0.00100   105  106  107      4
   107   0.06900  -0.01050   8.06900   0.00728    0.00000  74.05460   0.00100   106  107  108      4
   108   0.07050  -0.00350   8.06900   0.00707    0.00000  81.86990   0.00100   107  108   73      4
   109   0.07450  -0.00650   8.25400   0.01319    8.72080 -94.39871   0.00100   182  109  110      2
   110   0.07200  -0.01950   8.25600   0.01375    8.36499-107.10273   0.00100   109  110  111      2
   111   0.06750  -0.03150   8.25800   0.01225    9.39845-114.44395   0.00100   110  111  112      2
   112   0.06100  -0.04250   8.26000   0.01375    8.36499-126.02737   0.00100   111  112  113      2
   113   0.05250  -0.05250   8.26200   0.01288    8.93014-135.00000   0.00100   112  113  114      2
   114   0.04250  -0.06100   8.26400   0.01375    8.36499-143.97263   0.00100   113  114  115      2
   115   0.03150  -0.06750   8.26550   0.01212    4.73105-155.55605   0.00100   114  115  116      2
   116   0.01950  -0.07200   8.26700   0.01375    8.36499-162.89727   0.00100   115  116  117      2
   117   0.00650  -0.07450   8.26900   0.01319    8.72080-175.60129   0.00100   116  117  118      2
   118  -0.00650  -0.07450   8.27100   0.01319    8.72080 175.60129   0.00100   117  118  119      2
   119  -0.01950  -0.07200   8.27300   0.01375    8.36499 162.89727   0.00100   118  119  120      2
   120  -0.03150  -0.06750   8.27500   0.01225    9.39845 155.55605   0.00100   119  120  121      2
   121  -0.04250  -0.06100   8.27650   0.01364    4.20490 143.97263   0.00100   120  121  122      2
   122  -0.05250  -0.05250   8.27800   0.01288    8.93014 135.00000   0.00100   121  122  123      2
   123  -0.06100  -0.04250   8.28000   0.01375    8.36499 126.02737   0.00100   122  123  124      2
   124  -0.06750  -0.03150   8.28200   0.01225    9.39845 114.44395   0.00100   123  124  125      2
   125  -0.07200  -0.01950   8.28400   0.01375    8.36499 107.10273   0.00100   124  125  126      2
   126  -0.07450  -0.00650   8.28600   0.01319    8.72080  94.39871   0.00100   125  126  127      2
   127  -0.07450   0.00650   8.28800   0.01319    8.72080  85.60129   0.00100   126  127  128      2
   128  -0.07200   0.01950   8.28950   0.01364    4.20490  72.89727   0.00100   127  128  129      2
   129  -0.06750   0.03150   8.29100   0.01225    9.39845  65.55605   0.00100   128  129  130      2
   130  -0.06100   0.04250   8.29300   0.01375    8.36499  53.97263   0.00100   129  130  131      2
   131  -0.05250   0.05250   8.29500   0.01288    8.93014  45.00000   0.00100   130  131  132      2
   132  -0.04250   0.06100   8.29700   0.01375    8.36499  36.02737   0.00100   131  132  133      2
   133  -0.03150   0.06750   8.29900   0.01225    9.39845  24.44395   0.00100   132  133  134      2
   134  -0.01950   0.07200   8.30100   0.01375    8.36499  17.10273   0.00100   133  134  135      2
   135  -0.00650   0.07450   8.30250   0.01308    4.38580   4.39871   0.00100   134  135  136      2
   136   0.00650   0.07450   8.30400   0.01319    8.72080  -4.39871   0.00100   135  136  137      2
   137   0.01950   0.07200   8.30600   0.01375    8.36499 -17.10273   0.00100   136  137  138      2
   138   0.03150   0.06750   8.30800   0.01225    9.39845 -24.44395   0.00100   137  138  139      2
   139   0.04250   0.06100   8.31000   0.01375    8.36499 -36.02737   0.00100   138  139  140      2
   140   0.05250   0.05250   8.31200   0.01288    8.93014 -45.00000   0.00100   139  140  141      2
   141   0.06100   0.04250   8.31400   0.01375    8.36499 -53.97263   0.00100   140  141  142      2
   142   0.06750   0.03150   8.31550   0.01212    4.73105 -65.55605   0.00100   141  142  143      2
   143   0.07200   0.01950   8.31700   0.01375    8.36499 -72.89727   0.00100   142  143  144      2
   144   0.07450   0.00650   8.31900   0.01319    8.72080 -85.60129   0.00100   143  144  145      2
   145   0.07450  -0.00650   8.32100   0.01319    8.72080 -94.39871   0.00100   144  145  146      2
   146   0.07200  -0.01950   8.32300   0.01375    8.36499-107.10273   0.00100   145  146  147      2
   147   0.06750  -0.03150   8.32500   0.01225    9.39845-114.44395   0.00100   146  147  148      2
   148   0.06100  -0.04250   8.32700   0.01375    8.36499-126.02737   0.00100   147  148  149      2
   149   0.05250  -0.05250   8.32850   0.01277    4.49235-135.00000   0.00100   148  149  150      2
   150   0.04250  -0.06100   8.33000   0.01375    8.36499-143.97263   0.00100   149  150  151      2
   151   0.03150  -0.06750   8.33200   0.01225    9.39845-155.55605   0.00100   150  151  152      2
   152   0.01950  -0.07200   8.33400   0.01375    8.36499-162.89727   0.00100   151  152  153      2
   153   0.00650  -0.07450   8.33600   0.01319    8.72080-175.60129   0.00100   152  153  154      2
   154  -0.00650  -0.07450   8.33800   0.01319    8.72080 175.60129   0.00100   153  154  155      2
   155  -0.01950  -0.07200   8.33950   0.01364    4.20490 162.89727   0.00100   154  155  156      2
   156  -0.03150  -0.06750   8.34100   0.01225    9.39845 155.55605   0.00100   155  156  157      2
   157  -0.04250  -0.06100   8.34300   0.01375    8.36499 143.97263   0.00100   156  157  158      2
   158  -0.05250  -0.05250   8.34500   0.01288    8.93014 135.00000   0.00100   157  158  159      2
   159  -0.06100  -0.04250   8.34700   0.01375    8.36499 126.02737   0.00100   158  159  160      2
   160  -0.06750  -0.03150   8.34900   0.01225    9.39845 114.44395   0.00100   159  160  161      2
   161  -0.07200  -0.01950   8.35100   0.01375    8.36499 107.10273   0.00100   160  161  162      2
   162  -0.07450  -0.00650   8.35250   0.01308    4.38580  94.39871   0.00100   161  162  163      2
   163  -0.07450   0.00650   8.35400   0.01319    8.72080  85.60129   0.00100   162  163  164      2
   164  -0.07200   0.01950   8.35600   0.01375    8.36499  72.89727   0.00100   163  164  165      2
   165  -0.06750   0.03150   8.35800   0.01225    9.39845  65.55605   0.00100   164  165  166      2
   166  -0.06100   0.04250   8.36000   0.01375    8.36499  53.97263   0.00100   165  166  167      2
   167  -0.05250   0.05250   8.36200   0.01288    8.93014  45.00000   0.00100   166  167  168      2
   168  -0.04250   0.06100   8.36400   0.01375    8.36499  36.02737   0.00100   167  168  169      2
   169  -0.03150   0.06750   8.36550   0.01212    4.73105  24.44395   0.00100   168  169  170      2
   170  -0.01950   0.07200   8.36700   0.01375    8.36499  17.10273   0.00100   169  170  171      2
   171  -0.00650   0.07450   8.36900   0.01319    8.72080   4.39871   0.00100   170  171  172      2
   172   0.00650   0.07450   8.37100   0.01319    8.72080  -4.39871   0.00100   171  172  173      2
   173   0.01950   0.07200   8.37300   0.01375    8.36499 -17.10273   0.00100   172  173  174      2
   174   0.03150   0.06750   8.37500   0.01225    9.39845 -24.44395   0.00100   173  174  175      2
   175   0.04250   0.06100   8.37700   0.01375    8.36499 -36.02737   0.00100   174  175  176      2
   176   0.05250   0.05250   8.37850   0.01277    4.49235 -45.00000   0.00100   175  176  177      2
   177   0.06100   0.04250   8.38000   0.01375    8.36499 -53.97263   0.00100   176  177  178      2
   178   0.06750   0.03150   8.38200   0.01225    9.39845 -65.55605   0.00100   177  178  179      2
   179   0.07200   0.01950   8.38400   0.01375    8.36499 -72.89727   0.00100   178  179  180      2
   180   0.07450   0.00650   8.38600   0.01319    8.72080 -85.60129   0.00100   179  180    0      2
   181   0.07500   0.00000   8.16300   0.06000   90.00000   0.00000   0.00100    72  181  182      3
   182   0.07500   0.00000   8.22300   0.06000   90.00000   0.00000   0.00100   181  182  109      3






 ***** DATA CARD NO.  1   GN   2     0     0     0  1.10000E+01  1.00000E-02  0.00000E+00  0.00000E+00  0.00000E+00  0.00000E+00
 ***** DATA CARD NO.  2   EK   0     0     0     0  0.00000E+00  0.00000E+00  0.00000E+00  0.00000E+00  0.00000E+00  0.00000E+00
 ***** DATA CARD NO.  3   LD   5     0     0     0  5.80000E+07  0.00000E+00  0.00000E+00  0.00000E+00  0.00000E+00  0.00000E+00
 ***** DATA CARD NO.  4   EX   0   999     1     0  1.00000E+00  0.00000E+00  0.00000E+00  0.00000E+00  0.00000E+00  0.00000E+00
 ***** DATA CARD NO.  5   FR   0     1     0     0  1.44200E+02  0.00000E+00  0.00000E+00  0.00000E+00  0.00000E+00  0.00000E+00
 ***** DATA CARD NO.  6   RP   0     1     1  1000  8.70000E+01  9.00000E+01  0.00000E+00  0.00000E+00  0.00000E+00  0.00000E+00




                                 - - - - - - FREQUENCY - - - - - -

                                    FREQUENCY= 1.4420E+02 MHZ
                                    WAVELENGTH= 2.0791E+00 METERS




                    APPROXIMATE INTEGRATION EMPLOYED FOR SEGMENTS MORE THAN   1.000 WAVELENGTHS APART

                    THE EXTENDED THIN WIRE KERNEL WILL BE USED



                               - - - STRUCTURE IMPEDANCE LOADING - - -


       LOCATION          RESISTANCE   INDUCTANCE  CAPACITANCE       IMPEDANCE (OHMS)     CONDUCTIVITY    TYPE
    ITAG FROM THRU          OHMS        HENRYS       FARADS        REAL      IMAGINARY    MHOS/METER

     ALL                                                                                 5.8000E+07     WIRE  



                                  - - - ANTENNA ENVIRONMENT - - -

                                        FINITE GROUND.  SOMMERFELD SOLUTION
                                        RELATIVE DIELECTRIC CONST.= 11.000
                                        CONDUCTIVITY= 1.000E-02 MHOS/METER
                                        COMPLEX DIELECTRIC CONSTANT= 1.10000E+01-1.24660E+00



                                - - - MATRIX TIMING - - -

                        FILL=    0.109 SEC.,  FACTOR=    0.016 SEC.



                                          - - - ANTENNA INPUT PARAMETERS - - -

   TAG   SEG.    VOLTAGE (VOLTS)         CURRENT (AMPS)         IMPEDANCE (OHMS)        ADMITTANCE (MHOS)      POWER
   NO.   NO.    REAL        IMAG.       REAL        IMAG.       REAL        IMAG.       REAL        IMAG.     (WATTS)
   999    73 1.00000E+00 0.00000E+00 9.70180E-04-2.31502E-04 9.75210E+02 2.32702E+02 9.70180E-04-2.31502E-04 4.85090E-04



                             - - - CURRENTS AND LOCATION - - -

                                 DISTANCES IN WAVELENGTHS


  SEG.  TAG    COORD. OF SEG. CENTER     SEG.            - - - CURRENT (AMPS) - - -
  NO.   NO.     X        Y        Z      LENGTH     REAL        IMAG.       MAG.        PHASE
     1    1   0.0358   0.0031   3.8484  0.00634  -8.7978E-05 -4.8310E-04  4.9104E-04 -100.321
     2    1   0.0346   0.0094   3.8493  0.00661  -2.1586E-04 -1.1836E-03  1.2031E-03 -100.336
     3    1   0.0325   0.0152   3.8503  0.00589  -3.2664E-04 -1.7885E-03  1.8181E-03 -100.350
     4    1   0.0293   0.0204   3.8510  0.00656  -4.3293E-04 -2.3671E-03  2.4063E-03 -100.365
     5    1   0.0253   0.0253   3.8517  0.00620  -5.3897E-04 -2.9427E-03  2.9917E-03 -100.379
     6    1   0.0204   0.0293   3.8527  0.00661  -6.4340E-04 -3.5083E-03  3.5668E-03 -100.392
     7    1   0.0152   0.0325   3.8537  0.00589  -7.4365E-04 -4.0501E-03  4.1178E-03 -100.404
     8    1   0.0094   0.0346   3.8546  0.00661  -8.4236E-04 -4.5829E-03  4.6597E-03 -100.415
     9    1   0.0031   0.0358   3.8556  0.00634  -9.4307E-04 -5.1260E-03  5.2120E-03 -100.425
    10    1  -0.0031   0.0358   3.8566  0.00634  -1.0401E-03 -5.6489E-03  5.7439E-03 -100.433
    11    1  -0.0094   0.0346   3.8573  0.00656  -1.1371E-03 -6.1716E-03  6.2755E-03 -100.439
    12    1  -0.0152   0.0325   3.8580  0.00589  -1.2287E-03 -6.6654E-03  6.7777E-03 -100.445
    13    1  -0.0204   0.0293   3.8590  0.00661  -1.3190E-03 -7.1526E-03  7.2732E-03 -100.448
    14    1  -0.0253   0.0253   3.8599  0.00620  -1.4095E-03 -7.6421E-03  7.7710E-03 -100.450
    15    1  -0.0293   0.0204   3.8609  0.00661  -1.4980E-03 -8.1213E-03  8.2583E-03 -100.451
    16    1  -0.0325   0.0152   3.8618  0.00589  -1.5823E-03 -8.5787E-03  8.7234E-03 -100.450
    17    1  -0.0346   0.0094   3.8626  0.00656  -1.6640E-03 -9.0236E-03  9.1758E-03 -100.448
    18    1  -0.0358   0.0031   3.8633  0.00634  -1.7459E-03 -9.4710E-03  9.6306E-03 -100.445
    19    1  -0.0358  -0.0031   3.8643  0.00634  -1.8238E-03 -9.8988E-03  1.0065E-02 -100.440
    20    1  -0.0346  -0.0094   3.8652  0.00661  -1.9007E-03 -1.0322E-02  1.0496E-02 -100.433
    21    1  -0.0325  -0.0152   3.8662  0.00589  -1.9721E-03 -1.0718E-02  1.0898E-02 -100.426
    22    1  -0.0293  -0.0204   3.8671  0.00661  -2.0407E-03 -1.1100E-02  1.1286E-02 -100.417
    23    1  -0.0253  -0.0253   3.8681  0.00620  -2.1080E-03 -1.1477E-02  1.1669E-02 -100.408
    24    1  -0.0204  -0.0293   3.8688  0.00656  -2.1719E-03 -1.1837E-02  1.2035E-02 -100.397
    25    1  -0.0152  -0.0325   3.8695  0.00589  -2.2307E-03 -1.2170E-02  1.2373E-02 -100.386
    26    1  -0.0094  -0.0346   3.8705  0.00661  -2.2865E-03 -1.2489E-02  1.2697E-02 -100.375
    27    1  -0.0031  -0.0358   3.8715  0.00634  -2.3409E-03 -1.2802E-02  1.3014E-02 -100.362
    28    1   0.0031  -0.0358   3.8724  0.00634  -2.3905E-03 -1.3089E-02  1.3306E-02 -100.350
    29    1   0.0094  -0.0346   3.8734  0.00661  -2.4373E-03 -1.3363E-02  1.3584E-02 -100.336
    30    1   0.0152  -0.0325   3.8744  0.00589  -2.4786E-03 -1.3608E-02  1.3831E-02 -100.323
    31    1   0.0204  -0.0293   3.8751  0.00656  -2.5159E-03 -1.3831E-02  1.4058E-02 -100.309
    32    1   0.0253  -0.0253   3.8758  0.00620  -2.5493E-03 -1.4035E-02  1.4265E-02 -100.295
    33    1   0.0293  -0.0204   3.8768  0.00661  -2.5782E-03 -1.4218E-02  1.4450E-02 -100.278
    34    1   0.0325  -0.0152   3.8777  0.00589  -2.6020E-03 -1.4376E-02  1.4610E-02 -100.259
    35    1   0.0346  -0.0094   3.8787  0.00661  -2.6216E-03 -1.4518E-02  1.4752E-02 -100.236
    36    1   0.0358  -0.0031   3.8796  0.00634  -2.6377E-03 -1.4649E-02  1.4885E-02 -100.207
    37    1   0.0358   0.0031   3.8806  0.00634  -2.6500E-03 -1.4746E-02  1.4983E-02 -100.188
    38    1   0.0346   0.0094   3.8813  0.00656  -2.6575E-03 -1.4721E-02  1.4959E-02 -100.233
    39    1   0.0325   0.0152   3.8820  0.00589  -2.6585E-03 -1.4659E-02  1.4899E-02 -100.279
    40    1   0.0293   0.0204   3.8830  0.00661  -2.6541E-03 -1.4580E-02  1.4820E-02 -100.317
    41    1   0.0253   0.0253   3.8840  0.00620  -2.6440E-03 -1.4475E-02  1.4715E-02 -100.351
    42    1   0.0204   0.0293   3.8849  0.00661  -2.6286E-03 -1.4345E-02  1.4584E-02 -100.384
    43    1   0.0152   0.0325   3.8859  0.00589  -2.6086E-03 -1.4192E-02  1.4430E-02 -100.415
    44    1   0.0094   0.0346   3.8869  0.00661  -2.5842E-03 -1.4016E-02  1.4253E-02 -100.446
    45    1   0.0031   0.0358   3.8876  0.00629  -2.5543E-03 -1.3810E-02  1.4044E-02 -100.479
    46    1  -0.0031   0.0358   3.8883  0.00634  -2.5202E-03 -1.3582E-02  1.3814E-02 -100.512
    47    1  -0.0094   0.0346   3.8893  0.00661  -2.4812E-03 -1.3327E-02  1.3556E-02 -100.547
    48    1  -0.0152   0.0325   3.8902  0.00589  -2.4397E-03 -1.3060E-02  1.3286E-02 -100.581
    49    1  -0.0204   0.0293   3.8912  0.00661  -2.3946E-03 -1.2775E-02  1.2997E-02 -100.617
    50    1  -0.0253   0.0253   3.8921  0.00620  -2.3448E-03 -1.2464E-02  1.2683E-02 -100.655
    51    1  -0.0293   0.0204   3.8929  0.00656  -2.2918E-03 -1.2137E-02  1.2352E-02 -100.693
    52    1  -0.0325   0.0152   3.8936  0.00589  -2.2363E-03 -1.1799E-02  1.2009E-02 -100.732
    53    1  -0.0346   0.0094   3.8946  0.00661  -2.1774E-03 -1.1445E-02  1.1650E-02 -100.772
    54    1  -0.0358   0.0031   3.8955  0.00634  -2.1132E-03 -1.1062E-02  1.1262E-02 -100.815
    55    1  -0.0358  -0.0031   3.8965  0.00634  -2.0473E-03 -1.0673E-02  1.0868E-02 -100.858
    56    1  -0.0346  -0.0094   3.8974  0.00661  -1.9770E-03 -1.0262E-02  1.0451E-02 -100.904
    57    1  -0.0325  -0.0152   3.8984  0.00589  -1.9064E-03 -9.8529E-03  1.0036E-02 -100.950
    58    1  -0.0293  -0.0204   3.8991  0.00656  -1.8336E-03 -9.4342E-03  9.6107E-03 -100.998
    59    1  -0.0253  -0.0253   3.8998  0.00620  -1.7560E-03 -8.9918E-03  9.1617E-03 -101.050
    60    1  -0.0204  -0.0293   3.9008  0.00661  -1.6757E-03 -8.5368E-03  8.6997E-03 -101.106
    61    1  -0.0152  -0.0325   3.9018  0.00589  -1.5951E-03 -8.0829E-03  8.2388E-03 -101.163
    62    1  -0.0094  -0.0346   3.9027  0.00661  -1.5125E-03 -7.6205E-03  7.7692E-03 -101.226
    63    1  -0.0031  -0.0358   3.9037  0.00634  -1.4249E-03 -7.1323E-03  7.2733E-03 -101.298
    64    1   0.0031  -0.0358   3.9047  0.00634  -1.3373E-03 -6.6465E-03  6.7797E-03 -101.377
    65    1   0.0094  -0.0346   3.9054  0.00656  -1.2466E-03 -6.1453E-03  6.2704E-03 -101.468
    66    1   0.0152  -0.0325   3.9061  0.00589  -1.1574E-03 -5.6535E-03  5.7707E-03 -101.570
    67    1   0.0204  -0.0293   3.9071  0.00661  -1.0665E-03 -5.1542E-03  5.2633E-03 -101.691
    68    1   0.0253  -0.0253   3.9080  0.00620  -9.7241E-04 -4.6376E-03  4.7385E-03 -101.842
    69    1   0.0293  -0.0204   3.9090  0.00661  -8.7745E-04 -4.1168E-03  4.2093E-03 -102.032
    70    1   0.0325  -0.0152   3.9099  0.00589  -7.8409E-04 -3.6048E-03  3.6891E-03 -102.271
    71    1   0.0346  -0.0094   3.9109  0.00661  -6.9058E-04 -3.0915E-03  3.1677E-03 -102.592
    72    1   0.0358  -0.0031   3.9116  0.00629  -5.9427E-04 -2.5620E-03  2.6300E-03 -103.059
    73  999   0.0339   0.0017   3.8811  0.00340   9.7018E-04 -2.3150E-04  9.9742E-04  -13.421
    74    4   0.0332   0.0051   3.8811  0.00350   9.7267E-04 -2.9819E-04  1.0174E-03  -17.044
    75    4   0.0320   0.0082   3.8811  0.00323   9.7497E-04 -3.6119E-04  1.0397E-03  -20.328
    76    4   0.0303   0.0111   3.8811  0.00347   9.7714E-04 -4.1108E-04  1.0601E-03  -22.817
    77    4   0.0281   0.0137   3.8811  0.00340   9.7940E-04 -4.5300E-04  1.0791E-03  -24.822
    78    4   0.0255   0.0159   3.8811  0.00347   9.8181E-04 -4.8629E-04  1.0956E-03  -26.349
    79    4   0.0226   0.0176   3.8811  0.00323   9.8436E-04 -5.1151E-04  1.1093E-03  -27.458
    80    4   0.0195   0.0188   3.8811  0.00350   9.8712E-04 -5.3074E-04  1.1208E-03  -28.266
    81    4   0.0161   0.0195   3.8811  0.00340   9.9013E-04 -5.4489E-04  1.1302E-03  -28.825
    82    4   0.0127   0.0195   3.8811  0.00340   9.9321E-04 -5.5416E-04  1.1373E-03  -29.159
    83    4   0.0094   0.0188   3.8811  0.00350   9.9633E-04 -5.5979E-04  1.1428E-03  -29.330
    84    4   0.0063   0.0176   3.8811  0.00323   9.9924E-04 -5.6261E-04  1.1467E-03  -29.381
    85    4   0.0034   0.0159   3.8811  0.00347   1.0019E-03 -5.6373E-04  1.1496E-03  -29.365
    86    4   0.0007   0.0137   3.8811  0.00340   1.0043E-03 -5.6387E-04  1.1517E-03  -29.313
    87    4  -0.0014   0.0111   3.8811  0.00347   1.0061E-03 -5.6376E-04  1.1533E-03  -29.263
    88    4  -0.0031   0.0082   3.8811  0.00323   1.0074E-03 -5.6407E-04  1.1546E-03  -29.246
    89    4  -0.0043   0.0051   3.8811  0.00350   1.0081E-03 -5.6517E-04  1.1557E-03  -29.277
    90    4  -0.0051   0.0017   3.8811  0.00340   1.0081E-03 -5.6746E-04  1.1568E-03  -29.376
    91    4  -0.0051  -0.0017   3.8811  0.00340   1.0074E-03 -5.7098E-04  1.1580E-03  -29.544
    92    4  -0.0043  -0.0051   3.8811  0.00350   1.0060E-03 -5.7591E-04  1.1592E-03  -29.790
    93    4  -0.0031  -0.0082   3.8811  0.00323   1.0040E-03 -5.8188E-04  1.1604E-03  -30.096
    94    4  -0.0014  -0.0111   3.8811  0.00347   1.0014E-03 -5.8867E-04  1.1616E-03  -30.449
    95    4   0.0007  -0.0137   3.8811  0.00340   9.9821E-04 -5.9608E-04  1.1626E-03  -30.843
    96    4   0.0034  -0.0159   3.8811  0.00347   9.9460E-04 -6.0325E-04  1.1632E-03  -31.238
    97    4   0.0063  -0.0176   3.8811  0.00323   9.9081E-04 -6.0925E-04  1.1631E-03  -31.588
    98    4   0.0094  -0.0188   3.8811  0.00350   9.8685E-04 -6.1346E-04  1.1620E-03  -31.866
    99    4   0.0127  -0.0195   3.8811  0.00340   9.8281E-04 -6.1485E-04  1.1593E-03  -32.030
   100    4   0.0161  -0.0195   3.8811  0.00340   9.7901E-04 -6.1219E-04  1.1547E-03  -32.019
   101    4   0.0195  -0.0188   3.8811  0.00350   9.7545E-04 -6.0465E-04  1.1476E-03  -31.794
   102    4   0.0226  -0.0176   3.8811  0.00323   9.7238E-04 -5.9163E-04  1.1382E-03  -31.318
   103    4   0.0255  -0.0159   3.8811  0.00347   9.6981E-04 -5.7229E-04  1.1261E-03  -30.545
   104    4   0.0281  -0.0137   3.8811  0.00340   9.6783E-04 -5.4442E-04  1.1104E-03  -29.358
   105    4   0.0303  -0.0111   3.8811  0.00347   9.6660E-04 -5.0721E-04  1.0916E-03  -27.688
   106    4   0.0320  -0.0082   3.8811  0.00323   9.6615E-04 -4.6084E-04  1.0704E-03  -25.501
   107    4   0.0332  -0.0051   3.8811  0.00350   9.6654E-04 -4.0208E-04  1.0468E-03  -22.587
   108    4   0.0339  -0.0017   3.8811  0.00340   9.6789E-04 -3.2259E-04  1.0202E-03  -18.433
   109    2   0.0358  -0.0031   3.9701  0.00634   3.7029E-04  2.7409E-03  2.7658E-03   82.306
   110    2   0.0346  -0.0094   3.9710  0.00661   4.6819E-04  3.2760E-03  3.3093E-03   81.867
   111    2   0.0325  -0.0152   3.9720  0.00589   5.6267E-04  3.7902E-03  3.8318E-03   81.556
   112    2   0.0293  -0.0204   3.9730  0.00661   6.5706E-04  4.3022E-03  4.3521E-03   81.317
   113    2   0.0253  -0.0253   3.9739  0.00620   7.5328E-04  4.8224E-03  4.8809E-03   81.122
   114    2   0.0204  -0.0293   3.9749  0.00661   8.4889E-04  5.3380E-03  5.4051E-03   80.964
   115    2   0.0152  -0.0325   3.9756  0.00583   9.4097E-04  5.8333E-03  5.9087E-03   80.837
   116    2   0.0094  -0.0346   3.9763  0.00661   1.0318E-03  6.3207E-03  6.4044E-03   80.729
   117    2   0.0031  -0.0358   3.9773  0.00634   1.1252E-03  6.8214E-03  6.9136E-03   80.634
   118    2  -0.0031  -0.0358   3.9782  0.00634   1.2153E-03  7.3042E-03  7.4046E-03   80.554
   119    2  -0.0094  -0.0346   3.9792  0.00661   1.3058E-03  7.7889E-03  7.8976E-03   80.483
   120    2  -0.0152  -0.0325   3.9802  0.00589   1.3914E-03  8.2477E-03  8.3642E-03   80.425
   121    2  -0.0204  -0.0293   3.9809  0.00656   1.4749E-03  8.6958E-03  8.8199E-03   80.374
   122    2  -0.0253  -0.0253   3.9816  0.00620   1.5581E-03  9.1424E-03  9.2742E-03   80.328
   123    2  -0.0293  -0.0204   3.9826  0.00661   1.6395E-03  9.5801E-03  9.7194E-03   80.289
   124    2  -0.0325  -0.0152   3.9835  0.00589   1.7167E-03  9.9962E-03  1.0143E-02   80.256
   125    2  -0.0346  -0.0094   3.9845  0.00661   1.7916E-03  1.0401E-02  1.0554E-02   80.226
   126    2  -0.0358  -0.0031   3.9855  0.00634   1.8666E-03  1.0807E-02  1.0967E-02   80.200
   127    2  -0.0358   0.0031   3.9864  0.00634   1.9373E-03  1.1191E-02  1.1357E-02   80.178
   128    2  -0.0346   0.0094   3.9871  0.00656   2.0064E-03  1.1567E-02  1.1739E-02   80.159
   129    2  -0.0325   0.0152   3.9879  0.00589   2.0697E-03  1.1912E-02  1.2090E-02   80.143
   130    2  -0.0293   0.0204   3.9888  0.00661   2.1304E-03  1.2243E-02  1.2427E-02   80.129
   131    2  -0.0253   0.0253   3.9898  0.00620   2.1893E-03  1.2566E-02  1.2755E-02   80.117
   132    2  -0.0204   0.0293   3.9908  0.00661   2.2449E-03  1.2871E-02  1.3065E-02   80.106
   133    2  -0.0152   0.0325   3.9917  0.00589   2.2959E-03  1.3150E-02  1.3349E-02   80.096
   134    2  -0.0094   0.0346   3.9927  0.00661   2.3435E-03  1.3410E-02  1.3613E-02   80.088
   135    2  -0.0031   0.0358   3.9934  0.00629   2.3888E-03  1.3658E-02  1.3865E-02   80.079
   136    2   0.0031   0.0358   3.9941  0.00634   2.4287E-03  1.3876E-02  1.4087E-02   80.072
   137    2   0.0094   0.0346   3.9951  0.00661   2.4655E-03  1.4075E-02  1.4289E-02   80.064
   138    2   0.0152   0.0325   3.9960  0.00589   2.4968E-03  1.4243E-02  1.4460E-02   80.057
   139    2   0.0204   0.0293   3.9970  0.00661   2.5237E-03  1.4385E-02  1.4605E-02   80.049
   140    2   0.0253   0.0253   3.9980  0.00620   2.5465E-03  1.4503E-02  1.4725E-02   80.042
   141    2   0.0293   0.0204   3.9989  0.00661   2.5640E-03  1.4591E-02  1.4815E-02   80.033
   142    2   0.0325   0.0152   3.9997  0.00583   2.5757E-03  1.4645E-02  1.4870E-02   80.025
   143    2   0.0346   0.0094   4.0004  0.00661   2.5814E-03  1.4664E-02  1.4890E-02   80.016
   144    2   0.0358   0.0031   4.0013  0.00634   2.5812E-03  1.4649E-02  1.4874E-02   80.007
   145    2   0.0358  -0.0031   4.0023  0.00634   2.5751E-03  1.4599E-02  1.4824E-02   79.997
   146    2   0.0346  -0.0094   4.0033  0.00661   2.5628E-03  1.4513E-02  1.4738E-02   79.986
   147    2   0.0325  -0.0152   4.0042  0.00589   2.5454E-03  1.4399E-02  1.4622E-02   79.975
   148    2   0.0293  -0.0204   4.0052  0.00661   2.5231E-03  1.4256E-02  1.4477E-02   79.963
   149    2   0.0253  -0.0253   4.0059  0.00614   2.4954E-03  1.4082E-02  1.4301E-02   79.951
   150    2   0.0204  -0.0293   4.0066  0.00661   2.4626E-03  1.3878E-02  1.4095E-02   79.938
   151    2   0.0152  -0.0325   4.0076  0.00589   2.4263E-03  1.3656E-02  1.3870E-02   79.925
   152    2   0.0094  -0.0346   4.0085  0.00661   2.3862E-03  1.3412E-02  1.3623E-02   79.912
   153    2   0.0031  -0.0358   4.0095  0.00634   2.3408E-03  1.3138E-02  1.3345E-02   79.898
   154    2  -0.0031  -0.0358   4.0105  0.00634   2.2927E-03  1.2851E-02  1.3054E-02   79.884
   155    2  -0.0094  -0.0346   4.0112  0.00656   2.2402E-03  1.2539E-02  1.2738E-02   79.871
   156    2  -0.0152  -0.0325   4.0119  0.00589   2.1858E-03  1.2219E-02  1.2413E-02   79.858
   157    2  -0.0204  -0.0293   4.0129  0.00661   2.1280E-03  1.1881E-02  1.2070E-02   79.845
   158    2  -0.0253  -0.0253   4.0138  0.00620   2.0656E-03  1.1519E-02  1.1703E-02   79.833
   159    2  -0.0293  -0.0204   4.0148  0.00661   2.0002E-03  1.1141E-02  1.1319E-02   79.822
   160    2  -0.0325  -0.0152   4.0158  0.00589   1.9334E-03  1.0758E-02  1.0930E-02   79.812
   161    2  -0.0346  -0.0094   4.0167  0.00661   1.8638E-03  1.0362E-02  1.0528E-02   79.803
   162    2  -0.0358  -0.0031   4.0174  0.00629   1.7893E-03  9.9394E-03  1.0099E-02   79.795
   163    2  -0.0358   0.0031   4.0182  0.00634   1.7132E-03  9.5107E-03  9.6638E-03   79.788
   164    2  -0.0346   0.0094   4.0191  0.00661   1.6326E-03  9.0584E-03  9.2044E-03   79.783
   165    2  -0.0325   0.0152   4.0201  0.00589   1.5524E-03  8.6105E-03  8.7494E-03   79.780
   166    2  -0.0293   0.0204   4.0211  0.00661   1.4701E-03  8.1521E-03  8.2836E-03   79.777
   167    2  -0.0253   0.0253   4.0220  0.00620   1.3836E-03  7.6716E-03  7.7954E-03   79.777
   168    2  -0.0204   0.0293   4.0230  0.00661   1.2950E-03  7.1810E-03  7.2968E-03   79.777
   169    2  -0.0152   0.0325   4.0237  0.00583   1.2070E-03  6.6947E-03  6.8027E-03   79.780
   170    2  -0.0094   0.0346   4.0244  0.00661   1.1171E-03  6.1981E-03  6.2980E-03   79.783
   171    2  -0.0031   0.0358   4.0254  0.00634   1.0217E-03  5.6715E-03  5.7628E-03   79.788
   172    2   0.0031   0.0358   4.0263  0.00634   9.2657E-04  5.1467E-03  5.2294E-03   79.794
   173    2   0.0094   0.0346   4.0273  0.00661   8.2782E-04  4.6016E-03  4.6754E-03   79.802
   174    2   0.0152   0.0325   4.0283  0.00589   7.3100E-04  4.0666E-03  4.1318E-03   79.810
   175    2   0.0204   0.0293   4.0292  0.00661   6.3264E-04  3.5225E-03  3.5789E-03   79.818
   176    2   0.0253   0.0253   4.0300  0.00614   5.3059E-04  2.9571E-03  3.0043E-03   79.828
   177    2   0.0293   0.0204   4.0307  0.00661   4.2629E-04  2.3781E-03  2.4160E-03   79.837
   178    2   0.0325   0.0152   4.0316  0.00589   3.2135E-04  1.7944E-03  1.8230E-03   79.847
   179    2   0.0346   0.0094   4.0326  0.00661   2.1240E-04  1.1873E-03  1.2061E-03   79.857
   180    2   0.0358   0.0031   4.0336  0.00634   8.6587E-05  4.8447E-04  4.9215E-04   79.867
   181    3   0.0361   0.0000   3.9263  0.02886  -3.3035E-04 -1.1084E-03  1.1566E-03 -106.596
   182    3   0.0361   0.0000   3.9552  0.02886   1.0427E-04  1.2803E-03  1.2845E-03   85.344



                                        - - - POWER BUDGET - - -

                                           INPUT POWER   = 4.8509E-04 WATTS
                                           RADIATED POWER= 4.3195E-04 WATTS
                                           STRUCTURE LOSS= 5.3138E-05 WATTS
                                           NETWORK LOSS  = 0.0000E+00 WATTS
                                           EFFICIENCY    =  89.05 PERCENT



                                                - - - RADIATION PATTERNS - - -

  - - ANGLES - -           - POWER GAINS -       - - - POLARIZATION - - -    - - - E(THETA) - - -    - - - E(PHI) - - -
  THETA     PHI        VERT.   HOR.    TOTAL      AXIAL     TILT   SENSE     MAGNITUDE    PHASE      MAGNITUDE    PHASE 
 DEGREES  DEGREES       DB      DB      DB        RATIO     DEG.              VOLTS/M    DEGREES      VOLTS/M    DEGREES
   87.00    90.00     -25.97    6.47    6.47    0.01281    88.85  LEFT      8.57328E-03   -35.36    3.59300E-01    -2.88






 ***** DATA CARD NO.  7   EN   0     1     1  1000  8.70000E+01  9.00000E+01  0.00000E+00  0.00000E+00  0.00000E+00  0.00000E+00

 RUN TIME =     0.234
