1



                                 *********************************************

                                    NUMERICAL ELECTROMAGNETICS CODE (NEC-2D)

                                 *********************************************




                                     - - - - COMMENTS - - - -


                          No comments specified                                                      
                                                                                                     




                                 - - - STRUCTURE SPECIFICATION - - -

                                     COORDINATES MUST BE INPUT IN
                                     METERS OR BE SCALED TO METERS
                                     BEFORE STRUCTURE INPUT IS ENDED


  WIRE                                                                               NO. OF    FIRST  LAST     TAG
  NO.        X1         Y1         Z1          X2         Y2         Z2      RADIUS   SEG.     SEG.   SEG.     NO.
     1    0.07600    0.00000    0.00000     0.07400    0.01300    0.00200    0.00100      1        1     1       1
     2    0.07400    0.01300    0.00200     0.07100    0.02600    0.00400    0.00100      1        2     2       1
     3    0.07100    0.02600    0.00400     0.06500    0.03800    0.00500    0.00100      1        3     3       1
     4    0.06500    0.03800    0.00500     0.05800    0.04900    0.00700    0.00100      1        4     4       1
     5    0.05800    0.04900    0.00700     0.04900    0.05800    0.00900    0.00100      1        5     5       1
     6    0.04900    0.05800    0.00900     0.03800    0.06500    0.01100    0.00100      1        6     6       1
     7    0.03800    0.06500    0.01100     0.02600    0.07100    0.01300    0.00100      1        7     7       1
     8    0.02600    0.07100    0.01300     0.01300    0.07400    0.01400    0.00100      1        8     8       1
     9    0.01300    0.07400    0.01400     0.00000    0.07600    0.01600    0.00100      1        9     9       1
    10    0.00000    0.07600    0.01600    -0.01300    0.07400    0.01800    0.00100      1       10    10       1
    11   -0.01300    0.07400    0.01800    -0.02600    0.07100    0.02000    0.00100      1       11    11       1
    12   -0.02600    0.07100    0.02000    -0.03800    0.06500    0.02200    0.00100      1       12    12       1
    13   -0.03800    0.06500    0.02200    -0.04900    0.05800    0.02400    0.00100      1       13    13       1
    14   -0.04900    0.05800    0.02400    -0.05800    0.04900    0.02500    0.00100      1       14    14       1
    15   -0.05800    0.04900    0.02500    -0.06500    0.03800    0.02700    0.00100      1       15    15       1
    16   -0.06500    0.03800    0.02700    -0.07100    0.02600    0.02900    0.00100      1       16    16       1
    17   -0.07100    0.02600    0.02900    -0.07400    0.01300    0.03100    0.00100      1       17    17       1
    18   -0.07400    0.01300    0.03100    -0.07600    0.00000    0.03300    0.00100      1       18    18       1
    19   -0.07600    0.00000    0.03300    -0.07400   -0.01300    0.03400    0.00100      1       19    19       1
    20   -0.07400   -0.01300    0.03400    -0.07100   -0.02600    0.03600    0.00100      1       20    20       1
    21   -0.07100   -0.02600    0.03600    -0.06500   -0.03800    0.03800    0.00100      1       21    21       1
    22   -0.06500   -0.03800    0.03800    -0.05800   -0.04900    0.04000    0.00100      1       22    22       1
    23   -0.05800   -0.04900    0.04000    -0.04900   -0.05800    0.04200    0.00100      1       23    23       1
    24   -0.04900   -0.05800    0.04200    -0.03800   -0.06500    0.04300    0.00100      1       24    24       1
    25   -0.03800   -0.06500    0.04300    -0.02600   -0.07100    0.04500    0.00100      1       25    25       1
    26   -0.02600   -0.07100    0.04500    -0.01300   -0.07400    0.04700    0.00100      1       26    26       1
    27   -0.01300   -0.07400    0.04700     0.00000   -0.07600    0.04900    0.00100      1       27    27       1
    28    0.00000   -0.07600    0.04900     0.01300   -0.07400    0.05100    0.00100      1       28    28       1
    29    0.01300   -0.07400    0.05100     0.02600   -0.07100    0.05200    0.00100      1       29    29       1
    30    0.02600   -0.07100    0.05200     0.03800   -0.06500    0.05400    0.00100      1       30    30       1
    31    0.03800   -0.06500    0.05400     0.04900   -0.05800    0.05600    0.00100      1       31    31       1
    32    0.04900   -0.05800    0.05600     0.05800   -0.04900    0.05800    0.00100      1       32    32       1
    33    0.05800   -0.04900    0.05800     0.06500   -0.03800    0.06000    0.00100      1       33    33       1
    34    0.06500   -0.03800    0.06000     0.07100   -0.02600    0.06100    0.00100      1       34    34       1
    35    0.07100   -0.02600    0.06100     0.07400   -0.01300    0.06300    0.00100      1       35    35       1
    36    0.07400   -0.01300    0.06300     0.07600    0.00000    0.06500    0.00100      1       36    36       1
    37    0.07600    0.00000    0.06500     0.07400    0.01300    0.06700    0.00100      1       37    37       1
    38    0.07400    0.01300    0.06700     0.07100    0.02600    0.06900    0.00100      1       38    38       1
    39    0.07100    0.02600    0.06900     0.06500    0.03800    0.07100    0.00100      1       39    39       1
    40    0.06500    0.03800    0.07100     0.05800    0.04900    0.07200    0.00100      1       40    40       1
    41    0.05800    0.04900    0.07200     0.04900    0.05800    0.07400    0.00100      1       41    41       1
    42    0.04900    0.05800    0.07400     0.03800    0.06500    0.07600    0.00100      1       42    42       1
    43    0.03800    0.06500    0.07600     0.02600    0.07100    0.07800    0.00100      1       43    43       1
    44    0.02600    0.07100    0.07800     0.01300    0.07400    0.08000    0.00100      1       44    44       1
    45    0.01300    0.07400    0.08000     0.00000    0.07600    0.08100    0.00100      1       45    45       1
    46    0.00000    0.07600    0.08100    -0.01300    0.07400    0.08300    0.00100      1       46    46       1
    47   -0.01300    0.07400    0.08300    -0.02600    0.07100    0.08500    0.00100      1       47    47       1
    48   -0.02600    0.07100    0.08500    -0.03800    0.06500    0.08700    0.00100      1       48    48       1
    49   -0.03800    0.06500    0.08700    -0.04900    0.05800    0.08900    0.00100      1       49    49       1
    50   -0.04900    0.05800    0.08900    -0.05800    0.04900    0.09000    0.00100      1       50    50       1
    51   -0.05800    0.04900    0.09000    -0.06500    0.03800    0.09200    0.00100      1       51    51       1
    52   -0.06500    0.03800    0.09200    -0.07100    0.02600    0.09400    0.00100      1       52    52       1
    53   -0.07100    0.02600    0.09400    -0.07400    0.01300    0.09600    0.00100      1       53    53       1
    54   -0.07400    0.01300    0.09600    -0.07600    0.00000    0.09800    0.00100      1       54    54       1
    55   -0.07600    0.00000    0.09800    -0.07400   -0.01300    0.09900    0.00100      1       55    55       1
    56   -0.07400   -0.01300    0.09900    -0.07100   -0.02600    0.10100    0.00100      1       56    56       1
    57   -0.07100   -0.02600    0.10100    -0.06500   -0.03800    0.10300    0.00100      1       57    57       1
    58   -0.06500   -0.03800    0.10300    -0.05800   -0.04900    0.10500    0.00100      1       58    58       1
    59   -0.05800   -0.04900    0.10500    -0.04900   -0.05800    0.10700    0.00100      1       59    59       1
    60   -0.04900   -0.05800    0.10700    -0.03800   -0.06500    0.10900    0.00100      1       60    60       1
    61   -0.03800   -0.06500    0.10900    -0.02600   -0.07100    0.11000    0.00100      1       61    61       1
    62   -0.02600   -0.07100    0.11000    -0.01300   -0.07400    0.11200    0.00100      1       62    62       1
    63   -0.01300   -0.07400    0.11200     0.00000   -0.07600    0.11400    0.00100      1       63    63       1
    64    0.00000   -0.07600    0.11400     0.01300   -0.07400    0.11600    0.00100      1       64    64       1
    65    0.01300   -0.07400    0.11600     0.02600   -0.07100    0.11800    0.00100      1       65    65       1
    66    0.02600   -0.07100    0.11800     0.03800   -0.06500    0.11900    0.00100      1       66    66       1
    67    0.03800   -0.06500    0.11900     0.04900   -0.05800    0.12100    0.00100      1       67    67       1
    68    0.04900   -0.05800    0.12100     0.05800   -0.04900    0.12300    0.00100      1       68    68       1
    69    0.05800   -0.04900    0.12300     0.06500   -0.03800    0.12500    0.00100      1       69    69       1
    70    0.06500   -0.03800    0.12500     0.07100   -0.02600    0.12700    0.00100      1       70    70       1
    71    0.07100   -0.02600    0.12700     0.07400   -0.01300    0.12800    0.00100      1       71    71       1
    72    0.07400   -0.01300    0.12800     0.07600    0.00000    0.13000    0.00100      1       72    72       1
    73    0.07100    0.00000    0.06600     0.07100    0.00700    0.06600    0.00100      1       73    73     999
    74    0.07100    0.00700    0.06600     0.06900    0.01400    0.06600    0.00100      1       74    74       4
    75    0.06900    0.01400    0.06600     0.06600    0.02000    0.06600    0.00100      1       75    75       4
    76    0.06600    0.02000    0.06600     0.06200    0.02600    0.06600    0.00100      1       76    76       4
    77    0.06200    0.02600    0.06600     0.05700    0.03100    0.06600    0.00100      1       77    77       4
    78    0.05700    0.03100    0.06600     0.05100    0.03500    0.06600    0.00100      1       78    78       4
    79    0.05100    0.03500    0.06600     0.04500    0.03800    0.06600    0.00100      1       79    79       4
    80    0.04500    0.03800    0.06600     0.03800    0.04000    0.06600    0.00100      1       80    80       4
    81    0.03800    0.04000    0.06600     0.03100    0.04000    0.06600    0.00100      1       81    81       4
    82    0.03100    0.04000    0.06600     0.02400    0.04000    0.06600    0.00100      1       82    82       4
    83    0.02400    0.04000    0.06600     0.01700    0.03800    0.06600    0.00100      1       83    83       4
    84    0.01700    0.03800    0.06600     0.01100    0.03500    0.06600    0.00100      1       84    84       4
    85    0.01100    0.03500    0.06600     0.00500    0.03100    0.06600    0.00100      1       85    85       4
    86    0.00500    0.03100    0.06600     0.00000    0.02600    0.06600    0.00100      1       86    86       4
    87    0.00000    0.02600    0.06600    -0.00400    0.02000    0.06600    0.00100      1       87    87       4
    88   -0.00400    0.02000    0.06600    -0.00700    0.01400    0.06600    0.00100      1       88    88       4
    89   -0.00700    0.01400    0.06600    -0.00800    0.00700    0.06600    0.00100      1       89    89       4
    90   -0.00800    0.00700    0.06600    -0.00900    0.00000    0.06600    0.00100      1       90    90       4
    91   -0.00900    0.00000    0.06600    -0.00800   -0.00700    0.06600    0.00100      1       91    91       4
    92   -0.00800   -0.00700    0.06600    -0.00700   -0.01400    0.06600    0.00100      1       92    92       4
    93   -0.00700   -0.01400    0.06600    -0.00400   -0.02000    0.06600    0.00100      1       93    93       4
    94   -0.00400   -0.02000    0.06600     0.00000   -0.02600    0.06600    0.00100      1       94    94       4
    95    0.00000   -0.02600    0.06600     0.00500   -0.03100    0.06600    0.00100      1       95    95       4
    96    0.00500   -0.03100    0.06600     0.01100   -0.03500    0.06600    0.00100      1       96    96       4
    97    0.01100   -0.03500    0.06600     0.01700   -0.03800    0.06600    0.00100      1       97    97       4
    98    0.01700   -0.03800    0.06600     0.02400   -0.04000    0.06600    0.00100      1       98    98       4
    99    0.02400   -0.04000    0.06600     0.03100   -0.04000    0.06600    0.00100      1       99    99       4
   100    0.03100   -0.04000    0.06600     0.03800   -0.04000    0.06600    0.00100      1      100   100       4
   101    0.03800   -0.04000    0.06600     0.04500   -0.03800    0.06600    0.00100      1      101   101       4
   102    0.04500   -0.03800    0.06600     0.05100   -0.03500    0.06600    0.00100      1      102   102       4
   103    0.05100   -0.03500    0.06600     0.05700   -0.03100    0.06600    0.00100      1      103   103       4
   104    0.05700   -0.03100    0.06600     0.06200   -0.02600    0.06600    0.00100      1      104   104       4
   105    0.06200   -0.02600    0.06600     0.06600   -0.02000    0.06600    0.00100      1      105   105       4
   106    0.06600   -0.02000    0.06600     0.06900   -0.01400    0.06600    0.00100      1      106   106       4
   107    0.06900   -0.01400    0.06600     0.07100   -0.00700    0.06600    0.00100      1      107   107       4
   108    0.07100   -0.00700    0.06600     0.07100    0.00000    0.06600    0.00100      1      108   108       4
   109    0.07600    0.00000    0.25100     0.07400   -0.01300    0.25300    0.00100      1      109   109       2
   110    0.07400   -0.01300    0.25300     0.07100   -0.02600    0.25500    0.00100      1      110   110       2
   111    0.07100   -0.02600    0.25500     0.06500   -0.03800    0.25700    0.00100      1      111   111       2
   112    0.06500   -0.03800    0.25700     0.05800   -0.04900    0.25800    0.00100      1      112   112       2
   113    0.05800   -0.04900    0.25800     0.04900   -0.05800    0.26000    0.00100      1      113   113       2
   114    0.04900   -0.05800    0.26000     0.03800   -0.06500    0.26200    0.00100      1      114   114       2
   115    0.03800   -0.06500    0.26200     0.02600   -0.07100    0.26400    0.00100      1      115   115       2
   116    0.02600   -0.07100    0.26400     0.01300   -0.07400    0.26600    0.00100      1      116   116       2
   117    0.01300   -0.07400    0.26600     0.00000   -0.07600    0.26700    0.00100      1      117   117       2
   118    0.00000   -0.07600    0.26700    -0.01300   -0.07400    0.26900    0.00100      1      118   118       2
   119   -0.01300   -0.07400    0.26900    -0.02600   -0.07100    0.27100    0.00100      1      119   119       2
   120   -0.02600   -0.07100    0.27100    -0.03800   -0.06500    0.27300    0.00100      1      120   120       2
   121   -0.03800   -0.06500    0.27300    -0.04900   -0.05800    0.27500    0.00100      1      121   121       2
   122   -0.04900   -0.05800    0.27500    -0.05800   -0.04900    0.27600    0.00100      1      122   122       2
   123   -0.05800   -0.04900    0.27600    -0.06500   -0.03800    0.27800    0.00100      1      123   123       2
   124   -0.06500   -0.03800    0.27800    -0.07100   -0.02600    0.28000    0.00100      1      124   124       2
   125   -0.07100   -0.02600    0.28000    -0.07400   -0.01300    0.28200    0.00100      1      125   125       2
   126   -0.07400   -0.01300    0.28200    -0.07600    0.00000    0.28400    0.00100      1      126   126       2
   127   -0.07600    0.00000    0.28400    -0.07400    0.01300    0.28500    0.00100      1      127   127       2
   128   -0.07400    0.01300    0.28500    -0.07100    0.02600    0.28700    0.00100      1      128   128       2
   129   -0.07100    0.02600    0.28700    -0.06500    0.03800    0.28900    0.00100      1      129   129       2
   130   -0.06500    0.03800    0.28900    -0.05800    0.04900    0.29100    0.00100      1      130   130       2
   131   -0.05800    0.04900    0.29100    -0.04900    0.05800    0.29300    0.00100      1      131   131       2
   132   -0.04900    0.05800    0.29300    -0.03800    0.06500    0.29500    0.00100      1      132   132       2
   133   -0.03800    0.06500    0.29500    -0.02600    0.07100    0.29600    0.00100      1      133   133       2
   134   -0.02600    0.07100    0.29600    -0.01300    0.07400    0.29800    0.00100      1      134   134       2
   135   -0.01300    0.07400    0.29800     0.00000    0.07600    0.30000    0.00100      1      135   135       2
   136    0.00000    0.07600    0.30000     0.01300    0.07400    0.30200    0.00100      1      136   136       2
   137    0.01300    0.07400    0.30200     0.02600    0.07100    0.30400    0.00100      1      137   137       2
   138    0.02600    0.07100    0.30400     0.03800    0.06500    0.30500    0.00100      1      138   138       2
   139    0.03800    0.06500    0.30500     0.04900    0.05800    0.30700    0.00100      1      139   139       2
   140    0.04900    0.05800    0.30700     0.05800    0.04900    0.30900    0.00100      1      140   140       2
   141    0.05800    0.04900    0.30900     0.06500    0.03800    0.31100    0.00100      1      141   141       2
   142    0.06500    0.03800    0.31100     0.07100    0.02600    0.31300    0.00100      1      142   142       2
   143    0.07100    0.02600    0.31300     0.07400    0.01300    0.31400    0.00100      1      143   143       2
   144    0.07400    0.01300    0.31400     0.07600    0.00000    0.31600    0.00100      1      144   144       2
   145    0.07600    0.00000    0.31600     0.07400   -0.01300    0.31800    0.00100      1      145   145       2
   146    0.07400   -0.01300    0.31800     0.07100   -0.02600    0.32000    0.00100      1      146   146       2
   147    0.07100   -0.02600    0.32000     0.06500   -0.03800    0.32200    0.00100      1      147   147       2
   148    0.06500   -0.03800    0.32200     0.05800   -0.04900    0.32300    0.00100      1      148   148       2
   149    0.05800   -0.04900    0.32300     0.04900   -0.05800    0.32500    0.00100      1      149   149       2
   150    0.04900   -0.05800    0.32500     0.03800   -0.06500    0.32700    0.00100      1      150   150       2
   151    0.03800   -0.06500    0.32700     0.02600   -0.07100    0.32900    0.00100      1      151   151       2
   152    0.02600   -0.07100    0.32900     0.01300   -0.07400    0.33100    0.00100      1      152   152       2
   153    0.01300   -0.07400    0.33100     0.00000   -0.07600    0.33300    0.00100      1      153   153       2
   154    0.00000   -0.07600    0.33300    -0.01300   -0.07400    0.33400    0.00100      1      154   154       2
   155   -0.01300   -0.07400    0.33400    -0.02600   -0.07100    0.33600    0.00100      1      155   155       2
   156   -0.02600   -0.07100    0.33600    -0.03800   -0.06500    0.33800    0.00100      1      156   156       2
   157   -0.03800   -0.06500    0.33800    -0.04900   -0.05800    0.34000    0.00100      1      157   157       2
   158   -0.04900   -0.05800    0.34000    -0.05800   -0.04900    0.34200    0.00100      1      158   158       2
   159   -0.05800   -0.04900    0.34200    -0.06500   -0.03800    0.34300    0.00100      1      159   159       2
   160   -0.06500   -0.03800    0.34300    -0.07100   -0.02600    0.34500    0.00100      1      160   160       2
   161   -0.07100   -0.02600    0.34500    -0.07400   -0.01300    0.34700    0.00100      1      161   161       2
   162   -0.07400   -0.01300    0.34700    -0.07600    0.00000    0.34900    0.00100      1      162   162       2
   163   -0.07600    0.00000    0.34900    -0.07400    0.01300    0.35100    0.00100      1      163   163       2
   164   -0.07400    0.01300    0.35100    -0.07100    0.02600    0.35200    0.00100      1      164   164       2
   165   -0.07100    0.02600    0.35200    -0.06500    0.03800    0.35400    0.00100      1      165   165       2
   166   -0.06500    0.03800    0.35400    -0.05800    0.04900    0.35600    0.00100      1      166   166       2
   167   -0.05800    0.04900    0.35600    -0.04900    0.05800    0.35800    0.00100      1      167   167       2
   168   -0.04900    0.05800    0.35800    -0.03800    0.06500    0.36000    0.00100      1      168   168       2
   169   -0.03800    0.06500    0.36000    -0.02600    0.07100    0.36100    0.00100      1      169   169       2
   170   -0.02600    0.07100    0.36100    -0.01300    0.07400    0.36300    0.00100      1      170   170       2
   171   -0.01300    0.07400    0.36300     0.00000    0.07600    0.36500    0.00100      1      171   171       2
   172    0.00000    0.07600    0.36500     0.01300    0.07400    0.36700    0.00100      1      172   172       2
   173    0.01300    0.07400    0.36700     0.02600    0.07100    0.36900    0.00100      1      173   173       2
   174    0.02600    0.07100    0.36900     0.03800    0.06500    0.37000    0.00100      1      174   174       2
   175    0.03800    0.06500    0.37000     0.04900    0.05800    0.37200    0.00100      1      175   175       2
   176    0.04900    0.05800    0.37200     0.05800    0.04900    0.37400    0.00100      1      176   176       2
   177    0.05800    0.04900    0.37400     0.06500    0.03800    0.37600    0.00100      1      177   177       2
   178    0.06500    0.03800    0.37600     0.07100    0.02600    0.37800    0.00100      1      178   178       2
   179    0.07100    0.02600    0.37800     0.07400    0.01300    0.38000    0.00100      1      179   179       2
   180    0.07400    0.01300    0.38000     0.07600    0.00000    0.38100    0.00100      1      180   180       2
   181    0.07600    0.00000    0.13000     0.07600    0.00000    0.25100    0.00100      2      181   182       3
      THE STRUCTURE HAS BEEN MOVED, MOVE DATA CARD IS -
        0    0   0.00000   0.00000   0.00000   0.00000   0.00000   8.00000   0.00000

   GROUND PLANE SPECIFIED.

   WHERE WIRE ENDS TOUCH GROUND, CURRENT WILL BE INTERPOLATED TO IMAGE IN GROUND PLANE.


   TOTAL SEGMENTS USED=  182     NO. SEG. IN A SYMMETRIC CELL=  182     SYMMETRY FLAG=  0


         - MULTIPLE WIRE JUNCTIONS -
 JUNCTION    SEGMENTS  (- FOR END 1, + FOR END 2)
  NONE




                                 - - - - SEGMENTATION DATA - - - -

                                        COORDINATES IN METERS

                         I+ AND I- INDICATE THE SEGMENTS BEFORE AND AFTER I


  SEG.   COORDINATES OF SEG. CENTER     SEG.     ORIENTATION ANGLES    WIRE    CONNECTION DATA   TAG
  NO.       X         Y         Z       LENGTH     ALPHA     BETA      RADIUS    I-   I    I+    NO.
     1   0.07500   0.00650   8.00100   0.01330    8.64600  98.74616   0.00100     0    1    2      1
     2   0.07250   0.01950   8.00300   0.01349    8.52552 102.99462   0.00100     1    2    3      1
     3   0.06800   0.03200   8.00450   0.01345    4.26269 116.56505   0.00100     2    3    4      1
     4   0.06150   0.04350   8.00600   0.01319    8.72080 122.47119   0.00100     3    4    5      1
     5   0.05350   0.05350   8.00800   0.01288    8.93014 135.00000   0.00100     4    5    6      1
     6   0.04350   0.06150   8.01000   0.01319    8.72080 147.52881   0.00100     5    6    7      1
     7   0.03200   0.06800   8.01200   0.01356    8.47871 153.43495   0.00100     6    7    8      1
     8   0.01950   0.07250   8.01350   0.01338    4.28649 167.00538   0.00100     7    8    9      1
     9   0.00650   0.07500   8.01500   0.01330    8.64600 171.25384   0.00100     8    9   10      1
    10  -0.00650   0.07500   8.01700   0.01330    8.64600-171.25384   0.00100     9   10   11      1
    11  -0.01950   0.07250   8.01900   0.01349    8.52552-167.00538   0.00100    10   11   12      1
    12  -0.03200   0.06800   8.02100   0.01356    8.47871-153.43495   0.00100    11   12   13      1
    13  -0.04350   0.06150   8.02300   0.01319    8.72080-147.52881   0.00100    12   13   14      1
    14  -0.05350   0.05350   8.02450   0.01277    4.49235-135.00000   0.00100    13   14   15      1
    15  -0.06150   0.04350   8.02600   0.01319    8.72080-122.47119   0.00100    14   15   16      1
    16  -0.06800   0.03200   8.02800   0.01356    8.47871-116.56505   0.00100    15   16   17      1
    17  -0.07250   0.01950   8.03000   0.01349    8.52552-102.99462   0.00100    16   17   18      1
    18  -0.07500   0.00650   8.03200   0.01330    8.64600 -98.74616   0.00100    17   18   19      1
    19  -0.07500  -0.00650   8.03350   0.01319    4.34775 -81.25384   0.00100    18   19   20      1
    20  -0.07250  -0.01950   8.03500   0.01349    8.52552 -77.00538   0.00100    19   20   21      1
    21  -0.06800  -0.03200   8.03700   0.01356    8.47871 -63.43495   0.00100    20   21   22      1
    22  -0.06150  -0.04350   8.03900   0.01319    8.72080 -57.52881   0.00100    21   22   23      1
    23  -0.05350  -0.05350   8.04100   0.01288    8.93014 -45.00000   0.00100    22   23   24      1
    24  -0.04350  -0.06150   8.04250   0.01308    4.38580 -32.47119   0.00100    23   24   25      1
    25  -0.03200  -0.06800   8.04400   0.01356    8.47871 -26.56505   0.00100    24   25   26      1
    26  -0.01950  -0.07250   8.04600   0.01349    8.52552 -12.99462   0.00100    25   26   27      1
    27  -0.00650  -0.07500   8.04800   0.01330    8.64600  -8.74616   0.00100    26   27   28      1
    28   0.00650  -0.07500   8.05000   0.01330    8.64600   8.74616   0.00100    27   28   29      1
    29   0.01950  -0.07250   8.05150   0.01338    4.28649  12.99462   0.00100    28   29   30      1
    30   0.03200  -0.06800   8.05300   0.01356    8.47871  26.56505   0.00100    29   30   31      1
    31   0.04350  -0.06150   8.05500   0.01319    8.72080  32.47119   0.00100    30   31   32      1
    32   0.05350  -0.05350   8.05700   0.01288    8.93014  45.00000   0.00100    31   32   33      1
    33   0.06150  -0.04350   8.05900   0.01319    8.72080  57.52881   0.00100    32   33   34      1
    34   0.06800  -0.03200   8.06050   0.01345    4.26269  63.43495   0.00100    33   34   35      1
    35   0.07250  -0.01950   8.06200   0.01349    8.52552  77.00538   0.00100    34   35   36      1
    36   0.07500  -0.00650   8.06400   0.01330    8.64600  81.25384   0.00100    35   36   37      1
    37   0.07500   0.00650   8.06600   0.01330    8.64600  98.74616   0.00100    36   37   38      1
    38   0.07250   0.01950   8.06800   0.01349    8.52552 102.99462   0.00100    37   38   39      1
    39   0.06800   0.03200   8.07000   0.01356    8.47871 116.56505   0.00100    38   39   40      1
    40   0.06150   0.04350   8.07150   0.01308    4.38580 122.47119   0.00100    39   40   41      1
    41   0.05350   0.05350   8.07300   0.01288    8.93014 135.00000   0.00100    40   41   42      1
    42   0.04350   0.06150   8.07500   0.01319    8.72080 147.52881   0.00100    41   42   43      1
    43   0.03200   0.06800   8.07700   0.01356    8.47871 153.43495   0.00100    42   43   44      1
    44   0.01950   0.07250   8.07900   0.01349    8.52552 167.00538   0.00100    43   44   45      1
    45   0.00650   0.07500   8.08050   0.01319    4.34775 171.25384   0.00100    44   45   46      1
    46  -0.00650   0.07500   8.08200   0.01330    8.64600-171.25384   0.00100    45   46   47      1
    47  -0.01950   0.07250   8.08400   0.01349    8.52552-167.00538   0.00100    46   47   48      1
    48  -0.03200   0.06800   8.08600   0.01356    8.47871-153.43495   0.00100    47   48   49      1
    49  -0.04350   0.06150   8.08800   0.01319    8.72080-147.52881   0.00100    48   49   50      1
    50  -0.05350   0.05350   8.08950   0.01277    4.49235-135.00000   0.00100    49   50   51      1
    51  -0.06150   0.04350   8.09100   0.01319    8.72080-122.47119   0.00100    50   51   52      1
    52  -0.06800   0.03200   8.09300   0.01356    8.47871-116.56505   0.00100    51   52   53      1
    53  -0.07250   0.01950   8.09500   0.01349    8.52552-102.99462   0.00100    52   53   54      1
    54  -0.07500   0.00650   8.09700   0.01330    8.64600 -98.74616   0.00100    53   54   55      1
    55  -0.07500  -0.00650   8.09850   0.01319    4.34775 -81.25384   0.00100    54   55   56      1
    56  -0.07250  -0.01950   8.10000   0.01349    8.52552 -77.00538   0.00100    55   56   57      1
    57  -0.06800  -0.03200   8.10200   0.01356    8.47871 -63.43495   0.00100    56   57   58      1
    58  -0.06150  -0.04350   8.10400   0.01319    8.72080 -57.52881   0.00100    57   58   59      1
    59  -0.05350  -0.05350   8.10600   0.01288    8.93014 -45.00000   0.00100    58   59   60      1
    60  -0.04350  -0.06150   8.10800   0.01319    8.72080 -32.47119   0.00100    59   60   61      1
    61  -0.03200  -0.06800   8.10950   0.01345    4.26269 -26.56505   0.00100    60   61   62      1
    62  -0.01950  -0.07250   8.11100   0.01349    8.52552 -12.99462   0.00100    61   62   63      1
    63  -0.00650  -0.07500   8.11300   0.01330    8.64600  -8.74616   0.00100    62   63   64      1
    64   0.00650  -0.07500   8.11500   0.01330    8.64600   8.74616   0.00100    63   64   65      1
    65   0.01950  -0.07250   8.11700   0.01349    8.52552  12.99462   0.00100    64   65   66      1
    66   0.03200  -0.06800   8.11850   0.01345    4.26269  26.56505   0.00100    65   66   67      1
    67   0.04350  -0.06150   8.12000   0.01319    8.72080  32.47119   0.00100    66   67   68      1
    68   0.05350  -0.05350   8.12200   0.01288    8.93014  45.00000   0.00100    67   68   69      1
    69   0.06150  -0.04350   8.12400   0.01319    8.72080  57.52881   0.00100    68   69   70      1
    70   0.06800  -0.03200   8.12600   0.01356    8.47871  63.43495   0.00100    69   70   71      1
    71   0.07250  -0.01950   8.12750   0.01338    4.28649  77.00538   0.00100    70   71   72      1
    72   0.07500  -0.00650   8.12900   0.01330    8.64600  81.25384   0.00100    71   72  181      1
    73   0.07100   0.00350   8.06600   0.00700    0.00000  90.00000   0.00100   108   73   74    999
    74   0.07000   0.01050   8.06600   0.00728    0.00000 105.94540   0.00100    73   74   75      4
    75   0.06750   0.01700   8.06600   0.00671    0.00000 116.56505   0.00100    74   75   76      4
    76   0.06400   0.02300   8.06600   0.00721    0.00000 123.69007   0.00100    75   76   77      4
    77   0.05950   0.02850   8.06600   0.00707    0.00000 135.00000   0.00100    76   77   78      4
    78   0.05400   0.03300   8.06600   0.00721    0.00000 146.30993   0.00100    77   78   79      4
    79   0.04800   0.03650   8.06600   0.00671    0.00000 153.43495   0.00100    78   79   80      4
    80   0.04150   0.03900   8.06600   0.00728    0.00000 164.05460   0.00100    79   80   81      4
    81   0.03450   0.04000   8.06600   0.00700    0.00000 180.00000   0.00100    80   81   82      4
    82   0.02750   0.04000   8.06600   0.00700    0.00000 180.00000   0.00100    81   82   83      4
    83   0.02050   0.03900   8.06600   0.00728    0.00000-164.05460   0.00100    82   83   84      4
    84   0.01400   0.03650   8.06600   0.00671    0.00000-153.43495   0.00100    83   84   85      4
    85   0.00800   0.03300   8.06600   0.00721    0.00000-146.30993   0.00100    84   85   86      4
    86   0.00250   0.02850   8.06600   0.00707    0.00000-135.00000   0.00100    85   86   87      4
    87  -0.00200   0.02300   8.06600   0.00721    0.00000-123.69007   0.00100    86   87   88      4
    88  -0.00550   0.01700   8.06600   0.00671    0.00000-116.56505   0.00100    87   88   89      4
    89  -0.00750   0.01050   8.06600   0.00707    0.00000 -98.13010   0.00100    88   89   90      4
    90  -0.00850   0.00350   8.06600   0.00707    0.00000 -98.13010   0.00100    89   90   91      4
    91  -0.00850  -0.00350   8.06600   0.00707    0.00000 -81.86990   0.00100    90   91   92      4
    92  -0.00750  -0.01050   8.06600   0.00707    0.00000 -81.86990   0.00100    91   92   93      4
    93  -0.00550  -0.01700   8.06600   0.00671    0.00000 -63.43495   0.00100    92   93   94      4
    94  -0.00200  -0.02300   8.06600   0.00721    0.00000 -56.30993   0.00100    93   94   95      4
    95   0.00250  -0.02850   8.06600   0.00707    0.00000 -45.00000   0.00100    94   95   96      4
    96   0.00800  -0.03300   8.06600   0.00721    0.00000 -33.69007   0.00100    95   96   97      4
    97   0.01400  -0.03650   8.06600   0.00671    0.00000 -26.56505   0.00100    96   97   98      4
    98   0.02050  -0.03900   8.06600   0.00728    0.00000 -15.94540   0.00100    97   98   99      4
    99   0.02750  -0.04000   8.06600   0.00700    0.00000   0.00000   0.00100    98   99  100      4
   100   0.03450  -0.04000   8.06600   0.00700    0.00000   0.00000   0.00100    99  100  101      4
   101   0.04150  -0.03900   8.06600   0.00728    0.00000  15.94540   0.00100   100  101  102      4
   102   0.04800  -0.03650   8.06600   0.00671    0.00000  26.56505   0.00100   101  102  103      4
   103   0.05400  -0.03300   8.06600   0.00721    0.00000  33.69007   0.00100   102  103  104      4
   104   0.05950  -0.02850   8.06600   0.00707    0.00000  45.00000   0.00100   103  104  105      4
   105   0.06400  -0.02300   8.06600   0.00721    0.00000  56.30993   0.00100   104  105  106      4
   106   0.06750  -0.01700   8.06600   0.00671    0.00000  63.43495   0.00100   105  106  107      4
   107   0.07000  -0.01050   8.06600   0.00728    0.00000  74.05460   0.00100   106  107  108      4
   108   0.07100  -0.00350   8.06600   0.00700    0.00000  90.00000   0.00100   107  108   73      4
   109   0.07500  -0.00650   8.25200   0.01330    8.64600 -98.74616   0.00100   182  109  110      2
   110   0.07250  -0.01950   8.25400   0.01349    8.52552-102.99462   0.00100   109  110  111      2
   111   0.06800  -0.03200   8.25600   0.01356    8.47871-116.56505   0.00100   110  111  112      2
   112   0.06150  -0.04350   8.25750   0.01308    4.38580-122.47119   0.00100   111  112  113      2
   113   0.05350  -0.05350   8.25900   0.01288    8.93014-135.00000   0.00100   112  113  114      2
   114   0.04350  -0.06150   8.26100   0.01319    8.72080-147.52881   0.00100   113  114  115      2
   115   0.03200  -0.06800   8.26300   0.01356    8.47871-153.43495   0.00100   114  115  116      2
   116   0.01950  -0.07250   8.26500   0.01349    8.52552-167.00538   0.00100   115  116  117      2
   117   0.00650  -0.07500   8.26650   0.01319    4.34775-171.25384   0.00100   116  117  118      2
   118  -0.00650  -0.07500   8.26800   0.01330    8.64600 171.25384   0.00100   117  118  119      2
   119  -0.01950  -0.07250   8.27000   0.01349    8.52552 167.00538   0.00100   118  119  120      2
   120  -0.03200  -0.06800   8.27200   0.01356    8.47871 153.43495   0.00100   119  120  121      2
   121  -0.04350  -0.06150   8.27400   0.01319    8.72080 147.52881   0.00100   120  121  122      2
   122  -0.05350  -0.05350   8.27550   0.01277    4.49235 135.00000   0.00100   121  122  123      2
   123  -0.06150  -0.04350   8.27700   0.01319    8.72080 122.47119   0.00100   122  123  124      2
   124  -0.06800  -0.03200   8.27900   0.01356    8.47871 116.56505   0.00100   123  124  125      2
   125  -0.07250  -0.01950   8.28100   0.01349    8.52552 102.99462   0.00100   124  125  126      2
   126  -0.07500  -0.00650   8.28300   0.01330    8.64600  98.74616   0.00100   125  126  127      2
   127  -0.07500   0.00650   8.28450   0.01319    4.34775  81.25384   0.00100   126  127  128      2
   128  -0.07250   0.01950   8.28600   0.01349    8.52552  77.00538   0.00100   127  128  129      2
   129  -0.06800   0.03200   8.28800   0.01356    8.47871  63.43495   0.00100   128  129  130      2
   130  -0.06150   0.04350   8.29000   0.01319    8.72080  57.52881   0.00100   129  130  131      2
   131  -0.05350   0.05350   8.29200   0.01288    8.93014  45.00000   0.00100   130  131  132      2
   132  -0.04350   0.06150   8.29400   0.01319    8.72080  32.47119   0.00100   131  132  133      2
   133  -0.03200   0.06800   8.29550   0.01345    4.26269  26.56505   0.00100   132  133  134      2
   134  -0.01950   0.07250   8.29700   0.01349    8.52552  12.99462   0.00100   133  134  135      2
   135  -0.00650   0.07500   8.29900   0.01330    8.64600   8.74616   0.00100   134  135  136      2
   136   0.00650   0.07500   8.30100   0.01330    8.64600  -8.74616   0.00100   135  136  137      2
   137   0.01950   0.07250   8.30300   0.01349    8.52552 -12.99462   0.00100   136  137  138      2
   138   0.03200   0.06800   8.30450   0.01345    4.26269 -26.56505   0.00100   137  138  139      2
   139   0.04350   0.06150   8.30600   0.01319    8.72080 -32.47119   0.00100   138  139  140      2
   140   0.05350   0.05350   8.30800   0.01288    8.93014 -45.00000   0.00100   139  140  141      2
   141   0.06150   0.04350   8.31000   0.01319    8.72080 -57.52881   0.00100   140  141  142      2
   142   0.06800   0.03200   8.31200   0.01356    8.47871 -63.43495   0.00100   141  142  143      2
   143   0.07250   0.01950   8.31350   0.01338    4.28649 -77.00538   0.00100   142  143  144      2
   144   0.07500   0.00650   8.31500   0.01330    8.64600 -81.25384   0.00100   143  144  145      2
   145   0.07500  -0.00650   8.31700   0.01330    8.64600 -98.74616   0.00100   144  145  146      2
   146   0.07250  -0.01950   8.31900   0.01349    8.52552-102.99462   0.00100   145  146  147      2
   147   0.06800  -0.03200   8.32100   0.01356    8.47871-116.56505   0.00100   146  147  148      2
   148   0.06150  -0.04350   8.32250   0.01308    4.38580-122.47119   0.00100   147  148  149      2
   149   0.05350  -0.05350   8.32400   0.01288    8.93014-135.00000   0.00100   148  149  150      2
   150   0.04350  -0.06150   8.32600   0.01319    8.72080-147.52881   0.00100   149  150  151      2
   151   0.03200  -0.06800   8.32800   0.01356    8.47871-153.43495   0.00100   150  151  152      2
   152   0.01950  -0.07250   8.33000   0.01349    8.52552-167.00538   0.00100   151  152  153      2
   153   0.00650  -0.07500   8.33200   0.01330    8.64600-171.25384   0.00100   152  153  154      2
   154  -0.00650  -0.07500   8.33350   0.01319    4.34775 171.25384   0.00100   153  154  155      2
   155  -0.01950  -0.07250   8.33500   0.01349    8.52552 167.00538   0.00100   154  155  156      2
   156  -0.03200  -0.06800   8.33700   0.01356    8.47871 153.43495   0.00100   155  156  157      2
   157  -0.04350  -0.06150   8.33900   0.01319    8.72080 147.52881   0.00100   156  157  158      2
   158  -0.05350  -0.05350   8.34100   0.01288    8.93014 135.00000   0.00100   157  158  159      2
   159  -0.06150  -0.04350   8.34250   0.01308    4.38580 122.47119   0.00100   158  159  160      2
   160  -0.06800  -0.03200   8.34400   0.01356    8.47871 116.56505   0.00100   159  160  161      2
   161  -0.07250  -0.01950   8.34600   0.01349    8.52552 102.99462   0.00100   160  161  162      2
   162  -0.07500  -0.00650   8.34800   0.01330    8.64600  98.74616   0.00100   161  162  163      2
   163  -0.07500   0.00650   8.35000   0.01330    8.64600  81.25384   0.00100   162  163  164      2
   164  -0.07250   0.01950   8.35150   0.01338    4.28649  77.00538   0.00100   163  164  165      2
   165  -0.06800   0.03200   8.35300   0.01356    8.47871  63.43495   0.00100   164  165  166      2
   166  -0.06150   0.04350   8.35500   0.01319    8.72080  57.52881   0.00100   165  166  167      2
   167  -0.05350   0.05350   8.35700   0.01288    8.93014  45.00000   0.00100   166  167  168      2
   168  -0.04350   0.06150   8.35900   0.01319    8.72080  32.47119   0.00100   167  168  169      2
   169  -0.03200   0.06800   8.36050   0.01345    4.26269  26.56505   0.00100   168  169  170      2
   170  -0.01950   0.07250   8.36200   0.01349    8.52552  12.99462   0.00100   169  170  171      2
   171  -0.00650   0.07500   8.36400   0.01330    8.64600   8.74616   0.00100   170  171  172      2
   172   0.00650   0.07500   8.36600   0.01330    8.64600  -8.74616   0.00100   171  172  173      2
   173   0.01950   0.07250   8.36800   0.01349    8.52552 -12.99462   0.00100   172  173  174      2
   174   0.03200   0.06800   8.36950   0.01345    4.26269 -26.56505   0.00100   173  174  175      2
   175   0.04350   0.06150   8.37100   0.01319    8.72080 -32.47119   0.00100   174  175  176      2
   176   0.05350   0.05350   8.37300   0.01288    8.93014 -45.00000   0.00100   175  176  177      2
   177   0.06150   0.04350   8.37500   0.01319    8.72080 -57.52881   0.00100   176  177  178      2
   178   0.06800   0.03200   8.37700   0.01356    8.47871 -63.43495   0.00100   177  178  179      2
   179   0.07250   0.01950   8.37900   0.01349    8.52552 -77.00538   0.00100   178  179  180      2
   180   0.07500   0.00650   8.38050   0.01319    4.34775 -81.25384   0.00100   179  180    0      2
   181   0.07600   0.00000   8.16025   0.06050   90.00000   0.00000   0.00100    72  181  182      3
   182   0.07600   0.00000   8.22075   0.06050   90.00000   0.00000   0.00100   181  182  109      3






 ***** DATA CARD NO.  1   GN   2     0     0     0  1.10000E+01  1.00000E-02  0.00000E+00  0.00000E+00  0.00000E+00  0.00000E+00
 ***** DATA CARD NO.  2   EK   0     0     0     0  0.00000E+00  0.00000E+00  0.00000E+00  0.00000E+00  0.00000E+00  0.00000E+00
 ***** DATA CARD NO.  3   LD   5     0     0     0  5.80000E+07  0.00000E+00  0.00000E+00  0.00000E+00  0.00000E+00  0.00000E+00
 ***** DATA CARD NO.  4   EX   0   999     1     0  1.00000E+00  0.00000E+00  0.00000E+00  0.00000E+00  0.00000E+00  0.00000E+00
 ***** DATA CARD NO.  5   FR   0     1     0     0  1.44200E+02  0.00000E+00  0.00000E+00  0.00000E+00  0.00000E+00  0.00000E+00
 ***** DATA CARD NO.  6   RP   0     1     1  1000  8.70000E+01  9.00000E+01  0.00000E+00  0.00000E+00  0.00000E+00  0.00000E+00




                                 - - - - - - FREQUENCY - - - - - -

                                    FREQUENCY= 1.4420E+02 MHZ
                                    WAVELENGTH= 2.0791E+00 METERS




                    APPROXIMATE INTEGRATION EMPLOYED FOR SEGMENTS MORE THAN   1.000 WAVELENGTHS APART

                    THE EXTENDED THIN WIRE KERNEL WILL BE USED



                               - - - STRUCTURE IMPEDANCE LOADING - - -


       LOCATION          RESISTANCE   INDUCTANCE  CAPACITANCE       IMPEDANCE (OHMS)     CONDUCTIVITY    TYPE
    ITAG FROM THRU          OHMS        HENRYS       FARADS        REAL      IMAGINARY    MHOS/METER

     ALL                                                                                 5.8000E+07     WIRE  



                                  - - - ANTENNA ENVIRONMENT - - -

                                        FINITE GROUND.  SOMMERFELD SOLUTION
                                        RELATIVE DIELECTRIC CONST.= 11.000
                                        CONDUCTIVITY= 1.000E-02 MHOS/METER
                                        COMPLEX DIELECTRIC CONSTANT= 1.10000E+01-1.24660E+00



                                - - - MATRIX TIMING - - -

                        FILL=    0.109 SEC.,  FACTOR=    0.016 SEC.



                                          - - - ANTENNA INPUT PARAMETERS - - -

   TAG   SEG.    VOLTAGE (VOLTS)         CURRENT (AMPS)         IMPEDANCE (OHMS)        ADMITTANCE (MHOS)      POWER
   NO.   NO.    REAL        IMAG.       REAL        IMAG.       REAL        IMAG.       REAL        IMAG.     (WATTS)
   999    73 1.00000E+00 0.00000E+00 3.36817E-02-1.93564E-03 2.95920E+01 1.70061E+00 3.36817E-02-1.93564E-03 1.68408E-02



                             - - - CURRENTS AND LOCATION - - -

                                 DISTANCES IN WAVELENGTHS


  SEG.  TAG    COORD. OF SEG. CENTER     SEG.            - - - CURRENT (AMPS) - - -
  NO.   NO.     X        Y        Z      LENGTH     REAL        IMAG.       MAG.        PHASE
     1    1   0.0361   0.0031   3.8484  0.00640  -3.1247E-03 -3.3720E-04  3.1429E-03 -173.841
     2    1   0.0349   0.0094   3.8493  0.00649  -7.6046E-03 -8.1883E-04  7.6486E-03 -173.854
     3    1   0.0327   0.0154   3.8501  0.00647  -1.1635E-02 -1.2498E-03  1.1701E-02 -173.869
     4    1   0.0296   0.0209   3.8508  0.00634  -1.5459E-02 -1.6568E-03  1.5547E-02 -173.883
     5    1   0.0257   0.0257   3.8517  0.00620  -1.9104E-02 -2.0431E-03  1.9213E-02 -173.896
     6    1   0.0209   0.0296   3.8527  0.00634  -2.2676E-02 -2.4202E-03  2.2804E-02 -173.908
     7    1   0.0154   0.0327   3.8537  0.00652  -2.6272E-02 -2.7989E-03  2.6421E-02 -173.919
     8    1   0.0094   0.0349   3.8544  0.00644  -2.9831E-02 -3.1729E-03  2.9999E-02 -173.929
     9    1   0.0031   0.0361   3.8551  0.00640  -3.3287E-02 -3.5354E-03  3.3475E-02 -173.937
    10    1  -0.0031   0.0361   3.8561  0.00640  -3.6678E-02 -3.8906E-03  3.6884E-02 -173.945
    11    1  -0.0094   0.0349   3.8570  0.00649  -4.0033E-02 -4.2424E-03  4.0258E-02 -173.951
    12    1  -0.0154   0.0327   3.8580  0.00652  -4.3362E-02 -4.5917E-03  4.3605E-02 -173.955
    13    1  -0.0209   0.0296   3.8590  0.00634  -4.6591E-02 -4.9312E-03  4.6852E-02 -173.958
    14    1  -0.0257   0.0257   3.8597  0.00614  -4.9664E-02 -5.2550E-03  4.9942E-02 -173.960
    15    1  -0.0296   0.0209   3.8604  0.00634  -5.2664E-02 -5.5722E-03  5.2958E-02 -173.960
    16    1  -0.0327   0.0154   3.8614  0.00652  -5.5687E-02 -5.8933E-03  5.5998E-02 -173.959
    17    1  -0.0349   0.0094   3.8623  0.00649  -5.8670E-02 -6.2119E-03  5.8997E-02 -173.956
    18    1  -0.0361   0.0031   3.8633  0.00640  -6.1545E-02 -6.5211E-03  6.1890E-02 -173.952
    19    1  -0.0361  -0.0031   3.8640  0.00634  -6.4311E-02 -6.8205E-03  6.4671E-02 -173.946
    20    1  -0.0349  -0.0094   3.8647  0.00649  -6.6998E-02 -7.1136E-03  6.7374E-02 -173.939
    21    1  -0.0327  -0.0154   3.8657  0.00652  -6.9634E-02 -7.4037E-03  7.0027E-02 -173.931
    22    1  -0.0296  -0.0209   3.8667  0.00634  -7.2149E-02 -7.6829E-03  7.2557E-02 -173.922
    23    1  -0.0257  -0.0257   3.8676  0.00620  -7.4508E-02 -7.9474E-03  7.4931E-02 -173.912
    24    1  -0.0209  -0.0296   3.8683  0.00629  -7.6762E-02 -8.2024E-03  7.7199E-02 -173.901
    25    1  -0.0154  -0.0327   3.8691  0.00652  -7.8954E-02 -8.4530E-03  7.9405E-02 -173.889
    26    1  -0.0094  -0.0349   3.8700  0.00649  -8.1067E-02 -8.6972E-03  8.1532E-02 -173.877
    27    1  -0.0031  -0.0361   3.8710  0.00640  -8.3040E-02 -8.9279E-03  8.3519E-02 -173.864
    28    1   0.0031  -0.0361   3.8719  0.00640  -8.4880E-02 -9.1455E-03  8.5371E-02 -173.850
    29    1   0.0094  -0.0349   3.8727  0.00644  -8.6593E-02 -9.3510E-03  8.7096E-02 -173.837
    30    1   0.0154  -0.0327   3.8734  0.00652  -8.8165E-02 -9.5428E-03  8.8680E-02 -173.822
    31    1   0.0209  -0.0296   3.8744  0.00634  -8.9575E-02 -9.7187E-03  9.0101E-02 -173.808
    32    1   0.0257  -0.0257   3.8753  0.00620  -9.0802E-02 -9.8760E-03  9.1338E-02 -173.793
    33    1   0.0296  -0.0209   3.8763  0.00634  -9.1873E-02 -1.0020E-02  9.2418E-02 -173.776
    34    1   0.0327  -0.0154   3.8770  0.00647  -9.2797E-02 -1.0154E-02  9.3351E-02 -173.755
    35    1   0.0349  -0.0094   3.8777  0.00649  -9.3544E-02 -1.0277E-02  9.4107E-02 -173.730
    36    1   0.0361  -0.0031   3.8787  0.00640  -9.4140E-02 -1.0398E-02  9.4712E-02 -173.697
    37    1   0.0361   0.0031   3.8796  0.00640  -9.4587E-02 -1.0475E-02  9.5166E-02 -173.681
    38    1   0.0349   0.0094   3.8806  0.00649  -9.4879E-02 -1.0422E-02  9.5450E-02 -173.731
    39    1   0.0327   0.0154   3.8816  0.00652  -9.4943E-02 -1.0354E-02  9.5506E-02 -173.777
    40    1   0.0296   0.0209   3.8823  0.00629  -9.4785E-02 -1.0275E-02  9.5341E-02 -173.813
    41    1   0.0257   0.0257   3.8830  0.00620  -9.4403E-02 -1.0181E-02  9.4951E-02 -173.845
    42    1   0.0209   0.0296   3.8840  0.00634  -9.3830E-02 -1.0069E-02  9.4368E-02 -173.875
    43    1   0.0154   0.0327   3.8849  0.00652  -9.3058E-02 -9.9357E-03  9.3586E-02 -173.906
    44    1   0.0094   0.0349   3.8859  0.00649  -9.2095E-02 -9.7827E-03  9.2613E-02 -173.937
    45    1   0.0031   0.0361   3.8866  0.00634  -9.0980E-02 -9.6147E-03  9.1486E-02 -173.967
    46    1  -0.0031   0.0361   3.8873  0.00640  -8.9697E-02 -9.4294E-03  9.0191E-02 -173.999
    47    1  -0.0094   0.0349   3.8883  0.00649  -8.8254E-02 -9.2272E-03  8.8735E-02 -174.031
    48    1  -0.0154   0.0327   3.8893  0.00652  -8.6655E-02 -9.0086E-03  8.7122E-02 -174.065
    49    1  -0.0209   0.0296   3.8902  0.00634  -8.4942E-02 -8.7794E-03  8.5394E-02 -174.099
    50    1  -0.0257   0.0257   3.8909  0.00614  -8.3159E-02 -8.5454E-03  8.3597E-02 -174.133
    51    1  -0.0296   0.0209   3.8917  0.00634  -8.1248E-02 -8.2993E-03  8.1671E-02 -174.168
    52    1  -0.0327   0.0154   3.8926  0.00652  -7.9168E-02 -8.0360E-03  7.9575E-02 -174.204
    53    1  -0.0349   0.0094   3.8936  0.00649  -7.6955E-02 -7.7603E-03  7.7345E-02 -174.242
    54    1  -0.0361   0.0031   3.8946  0.00640  -7.4662E-02 -7.4790E-03  7.5036E-02 -174.280
    55    1  -0.0361  -0.0031   3.8953  0.00634  -7.2297E-02 -7.1931E-03  7.2654E-02 -174.318
    56    1  -0.0349  -0.0094   3.8960  0.00649  -6.9809E-02 -6.8967E-03  7.0149E-02 -174.358
    57    1  -0.0327  -0.0154   3.8970  0.00652  -6.7195E-02 -6.5893E-03  6.7517E-02 -174.399
    58    1  -0.0296  -0.0209   3.8979  0.00634  -6.4525E-02 -6.2795E-03  6.4830E-02 -174.442
    59    1  -0.0257  -0.0257   3.8989  0.00620  -6.1846E-02 -5.9721E-03  6.2134E-02 -174.484
    60    1  -0.0209  -0.0296   3.8998  0.00634  -5.9097E-02 -5.6602E-03  5.9368E-02 -174.529
    61    1  -0.0154  -0.0327   3.9006  0.00647  -5.6222E-02 -5.3371E-03  5.6474E-02 -174.577
    62    1  -0.0094  -0.0349   3.9013  0.00649  -5.3231E-02 -5.0043E-03  5.3466E-02 -174.629
    63    1  -0.0031  -0.0361   3.9023  0.00640  -5.0196E-02 -4.6692E-03  5.0412E-02 -174.686
    64    1   0.0031  -0.0361   3.9032  0.00640  -4.7123E-02 -4.3325E-03  4.7321E-02 -174.747
    65    1   0.0094  -0.0349   3.9042  0.00649  -4.3978E-02 -3.9901E-03  4.4158E-02 -174.816
    66    1   0.0154  -0.0327   3.9049  0.00647  -4.0765E-02 -3.6420E-03  4.0927E-02 -174.895
    67    1   0.0209  -0.0296   3.9056  0.00634  -3.7530E-02 -3.2930E-03  3.7674E-02 -174.986
    68    1   0.0257  -0.0257   3.9066  0.00620  -3.4324E-02 -2.9481E-03  3.4451E-02 -175.091
    69    1   0.0296  -0.0209   3.9075  0.00634  -3.1089E-02 -2.6006E-03  3.1198E-02 -175.218
    70    1   0.0327  -0.0154   3.9085  0.00652  -2.7748E-02 -2.2419E-03  2.7839E-02 -175.381
    71    1   0.0349  -0.0094   3.9092  0.00644  -2.4368E-02 -1.8784E-03  2.4440E-02 -175.592
    72    1   0.0361  -0.0031   3.9099  0.00640  -2.0985E-02 -1.5140E-03  2.1040E-02 -175.874
    73  999   0.0342   0.0017   3.8796  0.00337   3.3682E-02 -1.9356E-03  3.3737E-02   -3.289
    74    4   0.0337   0.0051   3.8796  0.00350   3.3780E-02 -2.0098E-03  3.3840E-02   -3.405
    75    4   0.0325   0.0082   3.8796  0.00323   3.3875E-02 -2.0806E-03  3.3939E-02   -3.515
    76    4   0.0308   0.0111   3.8796  0.00347   3.3964E-02 -2.1351E-03  3.4031E-02   -3.597
    77    4   0.0286   0.0137   3.8796  0.00340   3.4056E-02 -2.1805E-03  3.4126E-02   -3.664
    78    4   0.0260   0.0159   3.8796  0.00347   3.4155E-02 -2.2173E-03  3.4227E-02   -3.714
    79    4   0.0231   0.0176   3.8796  0.00323   3.4258E-02 -2.2459E-03  3.4332E-02   -3.751
    80    4   0.0200   0.0188   3.8796  0.00350   3.4370E-02 -2.2687E-03  3.4445E-02   -3.777
    81    4   0.0166   0.0192   3.8796  0.00337   3.4491E-02 -2.2866E-03  3.4567E-02   -3.793
    82    4   0.0132   0.0192   3.8796  0.00337   3.4611E-02 -2.2997E-03  3.4688E-02   -3.801
    83    4   0.0099   0.0188   3.8796  0.00350   3.4735E-02 -2.3093E-03  3.4812E-02   -3.804
    84    4   0.0067   0.0176   3.8796  0.00323   3.4851E-02 -2.3158E-03  3.4928E-02   -3.802
    85    4   0.0038   0.0159   3.8796  0.00347   3.4957E-02 -2.3202E-03  3.5033E-02   -3.797
    86    4   0.0012   0.0137   3.8796  0.00340   3.5050E-02 -2.3232E-03  3.5127E-02   -3.792
    87    4  -0.0010   0.0111   3.8796  0.00347   3.5125E-02 -2.3252E-03  3.5202E-02   -3.787
    88    4  -0.0026   0.0082   3.8796  0.00323   3.5176E-02 -2.3269E-03  3.5253E-02   -3.785
    89    4  -0.0036   0.0051   3.8796  0.00340   3.5203E-02 -2.3285E-03  3.5280E-02   -3.784
    90    4  -0.0041   0.0017   3.8796  0.00340   3.5203E-02 -2.3307E-03  3.5280E-02   -3.788
    91    4  -0.0041  -0.0017   3.8796  0.00340   3.5176E-02 -2.3332E-03  3.5254E-02   -3.795
    92    4  -0.0036  -0.0051   3.8796  0.00340   3.5122E-02 -2.3362E-03  3.5200E-02   -3.806
    93    4  -0.0026  -0.0082   3.8796  0.00323   3.5044E-02 -2.3395E-03  3.5122E-02   -3.819
    94    4  -0.0010  -0.0111   3.8796  0.00347   3.4942E-02 -2.3429E-03  3.5021E-02   -3.836
    95    4   0.0012  -0.0137   3.8796  0.00340   3.4817E-02 -2.3462E-03  3.4896E-02   -3.855
    96    4   0.0038  -0.0159   3.8796  0.00347   3.4675E-02 -2.3487E-03  3.4754E-02   -3.875
    97    4   0.0067  -0.0176   3.8796  0.00323   3.4525E-02 -2.3498E-03  3.4604E-02   -3.894
    98    4   0.0099  -0.0188   3.8796  0.00350   3.4367E-02 -2.3489E-03  3.4448E-02   -3.910
    99    4   0.0132  -0.0192   3.8796  0.00337   3.4207E-02 -2.3451E-03  3.4287E-02   -3.922
   100    4   0.0166  -0.0192   3.8796  0.00337   3.4053E-02 -2.3380E-03  3.4134E-02   -3.928
   101    4   0.0200  -0.0188   3.8796  0.00350   3.3909E-02 -2.3261E-03  3.3989E-02   -3.924
   102    4   0.0231  -0.0176   3.8796  0.00323   3.3784E-02 -2.3090E-03  3.3863E-02   -3.910
   103    4   0.0260  -0.0159   3.8796  0.00347   3.3680E-02 -2.2857E-03  3.3758E-02   -3.882
   104    4   0.0286  -0.0137   3.8796  0.00340   3.3602E-02 -2.2539E-03  3.3677E-02   -3.837
   105    4   0.0308  -0.0111   3.8796  0.00347   3.3553E-02 -2.2133E-03  3.3625E-02   -3.774
   106    4   0.0325  -0.0082   3.8796  0.00323   3.3534E-02 -2.1638E-03  3.3603E-02   -3.692
   107    4   0.0337  -0.0051   3.8796  0.00350   3.3555E-02 -2.1007E-03  3.3621E-02   -3.582
   108    4   0.0342  -0.0017   3.8796  0.00337   3.3615E-02 -2.0188E-03  3.3675E-02   -3.437
   109    2   0.0361  -0.0031   3.9691  0.00640   1.3301E-02  2.1634E-03  1.3476E-02    9.238
   110    2   0.0349  -0.0094   3.9701  0.00649   1.6722E-02  2.5254E-03  1.6911E-02    8.588
   111    2   0.0327  -0.0154   3.9710  0.00652   2.0170E-02  2.8877E-03  2.0375E-02    8.148
   112    2   0.0296  -0.0209   3.9718  0.00629   2.3550E-02  3.2409E-03  2.3772E-02    7.836
   113    2   0.0257  -0.0257   3.9725  0.00620   2.6815E-02  3.5799E-03  2.7053E-02    7.604
   114    2   0.0209  -0.0296   3.9734  0.00634   3.0073E-02  3.9167E-03  3.0327E-02    7.420
   115    2   0.0154  -0.0327   3.9744  0.00652   3.3384E-02  4.2579E-03  3.3654E-02    7.268
   116    2   0.0094  -0.0349   3.9754  0.00649   3.6698E-02  4.5984E-03  3.6985E-02    7.142
   117    2   0.0031  -0.0361   3.9761  0.00634   3.9923E-02  4.9292E-03  4.0227E-02    7.038
   118    2  -0.0031  -0.0361   3.9768  0.00640   4.3073E-02  5.2515E-03  4.3392E-02    6.951
   119    2  -0.0094  -0.0349   3.9778  0.00649   4.6208E-02  5.5726E-03  4.6543E-02    6.877
   120    2  -0.0154  -0.0327   3.9787  0.00652   4.9323E-02  5.8919E-03  4.9674E-02    6.812
   121    2  -0.0209  -0.0296   3.9797  0.00634   5.2346E-02  6.2022E-03  5.2712E-02    6.757
   122    2  -0.0257  -0.0257   3.9804  0.00614   5.5222E-02  6.4981E-03  5.5603E-02    6.711
   123    2  -0.0296  -0.0209   3.9811  0.00634   5.8022E-02  6.7871E-03  5.8418E-02    6.672
   124    2  -0.0327  -0.0154   3.9821  0.00652   6.0837E-02  7.0787E-03  6.1247E-02    6.637
   125    2  -0.0349  -0.0094   3.9831  0.00649   6.3608E-02  7.3670E-03  6.4033E-02    6.607
   126    2  -0.0361  -0.0031   3.9840  0.00640   6.6270E-02  7.6452E-03  6.6709E-02    6.581
   127    2  -0.0361   0.0031   3.9847  0.00634   6.8819E-02  7.9128E-03  6.9273E-02    6.559
   128    2  -0.0349   0.0094   3.9855  0.00649   7.1280E-02  8.1721E-03  7.1747E-02    6.540
   129    2  -0.0327   0.0154   3.9864  0.00652   7.3679E-02  8.4261E-03  7.4159E-02    6.524
   130    2  -0.0296   0.0209   3.9874  0.00634   7.5950E-02  8.6674E-03  7.6443E-02    6.510
   131    2  -0.0257   0.0257   3.9883  0.00620   7.8063E-02  8.8926E-03  7.8568E-02    6.499
   132    2  -0.0209   0.0296   3.9893  0.00634   8.0071E-02  9.1071E-03  8.0587E-02    6.489
   133    2  -0.0154   0.0327   3.9900  0.00647   8.2004E-02  9.3136E-03  8.2531E-02    6.480
   134    2  -0.0094   0.0349   3.9908  0.00649   8.3813E-02  9.5070E-03  8.4351E-02    6.471
   135    2  -0.0031   0.0361   3.9917  0.00640   8.5478E-02  9.6843E-03  8.6025E-02    6.464
   136    2   0.0031   0.0361   3.9927  0.00640   8.6993E-02  9.8451E-03  8.7549E-02    6.457
   137    2   0.0094   0.0349   3.9936  0.00649   8.8370E-02  9.9898E-03  8.8933E-02    6.450
   138    2   0.0154   0.0327   3.9944  0.00647   8.9593E-02  1.0117E-02  9.0162E-02    6.443
   139    2   0.0209   0.0296   3.9951  0.00634   9.0610E-02  1.0220E-02  9.1184E-02    6.435
   140    2   0.0257   0.0257   3.9960  0.00620   9.1431E-02  1.0301E-02  9.2010E-02    6.428
   141    2   0.0296   0.0209   3.9970  0.00634   9.2069E-02  1.0361E-02  9.2650E-02    6.421
   142    2   0.0327   0.0154   3.9980  0.00652   9.2520E-02  1.0398E-02  9.3102E-02    6.412
   143    2   0.0349   0.0094   3.9987  0.00644   9.2751E-02  1.0410E-02  9.3333E-02    6.404
   144    2   0.0361   0.0031   3.9994  0.00640   9.2726E-02  1.0392E-02  9.3307E-02    6.394
   145    2   0.0361  -0.0031   4.0004  0.00640   9.2476E-02  1.0348E-02  9.3053E-02    6.385
   146    2   0.0349  -0.0094   4.0013  0.00649   9.2004E-02  1.0278E-02  9.2576E-02    6.374
   147    2   0.0327  -0.0154   4.0023  0.00652   9.1311E-02  1.0183E-02  9.1877E-02    6.363
   148    2   0.0296  -0.0209   4.0030  0.00629   9.0432E-02  1.0066E-02  9.0991E-02    6.351
   149    2   0.0257  -0.0257   4.0037  0.00620   8.9380E-02  9.9300E-03  8.9930E-02    6.339
   150    2   0.0209  -0.0296   4.0047  0.00634   8.8167E-02  9.7758E-03  8.8708E-02    6.327
   151    2   0.0154  -0.0327   4.0057  0.00652   8.6772E-02  9.6010E-03  8.7302E-02    6.314
   152    2   0.0094  -0.0349   4.0066  0.00649   8.5215E-02  9.4082E-03  8.5733E-02    6.300
   153    2   0.0031  -0.0361   4.0076  0.00640   8.3538E-02  9.2030E-03  8.4044E-02    6.287
   154    2  -0.0031  -0.0361   4.0083  0.00634   8.1755E-02  8.9869E-03  8.2248E-02    6.273
   155    2  -0.0094  -0.0349   4.0090  0.00649   7.9823E-02  8.7557E-03  8.0301E-02    6.260
   156    2  -0.0154  -0.0327   4.0100  0.00652   7.7745E-02  8.5096E-03  7.8209E-02    6.246
   157    2  -0.0209  -0.0296   4.0110  0.00634   7.5581E-02  8.2559E-03  7.6031E-02    6.234
   158    2  -0.0257  -0.0257   4.0119  0.00620   7.3372E-02  7.9995E-03  7.3807E-02    6.222
   159    2  -0.0296  -0.0209   4.0126  0.00629   7.1079E-02  7.7359E-03  7.1499E-02    6.211
   160    2  -0.0327  -0.0154   4.0134  0.00652   6.8619E-02  7.4559E-03  6.9023E-02    6.201
   161    2  -0.0349  -0.0094   4.0143  0.00649   6.6026E-02  7.1635E-03  6.6414E-02    6.192
   162    2  -0.0361  -0.0031   4.0153  0.00640   6.3372E-02  6.8669E-03  6.3743E-02    6.184
   163    2  -0.0361   0.0031   4.0162  0.00640   6.0653E-02  6.5655E-03  6.1007E-02    6.178
   164    2  -0.0349   0.0094   4.0170  0.00644   5.7849E-02  6.2568E-03  5.8186E-02    6.173
   165    2  -0.0327   0.0154   4.0177  0.00652   5.4926E-02  5.9373E-03  5.5245E-02    6.170
   166    2  -0.0296   0.0209   4.0186  0.00634   5.1949E-02  5.6138E-03  5.2251E-02    6.168
   167    2  -0.0257   0.0257   4.0196  0.00620   4.8979E-02  5.2927E-03  4.9265E-02    6.167
   168    2  -0.0209   0.0296   4.0206  0.00634   4.5948E-02  4.9661E-03  4.6216E-02    6.169
   169    2  -0.0154   0.0327   4.0213  0.00647   4.2790E-02  4.6267E-03  4.3039E-02    6.171
   170    2  -0.0094   0.0349   4.0220  0.00649   3.9523E-02  4.2763E-03  3.9754E-02    6.175
   171    2  -0.0031   0.0361   4.0230  0.00640   3.6215E-02  3.9218E-03  3.6426E-02    6.181
   172    2   0.0031   0.0361   4.0239  0.00640   3.2871E-02  3.5636E-03  3.3063E-02    6.187
   173    2   0.0094   0.0349   4.0249  0.00649   2.9447E-02  3.1963E-03  2.9620E-02    6.195
   174    2   0.0154   0.0327   4.0256  0.00647   2.5943E-02  2.8200E-03  2.6096E-02    6.204
   175    2   0.0209   0.0296   4.0263  0.00634   2.2409E-02  2.4395E-03  2.2541E-02    6.213
   176    2   0.0257   0.0257   4.0273  0.00620   1.8882E-02  2.0589E-03  1.8994E-02    6.223
   177    2   0.0296   0.0209   4.0283  0.00634   1.5281E-02  1.6689E-03  1.5372E-02    6.233
   178    2   0.0327   0.0154   4.0292  0.00652   1.1484E-02  1.2564E-03  1.1553E-02    6.243
   179    2   0.0349   0.0094   4.0302  0.00649   7.4855E-03  8.2032E-04  7.5303E-03    6.254
   180    2   0.0361   0.0031   4.0309  0.00634   3.0737E-03  3.3738E-04  3.0921E-03    6.264
   181    3   0.0366   0.0000   3.9250  0.02910  -1.1567E-02 -4.9760E-04  1.1577E-02 -177.537
   182    3   0.0366   0.0000   3.9541  0.02910   3.8497E-03  1.1549E-03  4.0192E-03   16.699



                                        - - - POWER BUDGET - - -

                                           INPUT POWER   = 1.6841E-02 WATTS
                                           RADIATED POWER= 1.4596E-02 WATTS
                                           STRUCTURE LOSS= 2.2450E-03 WATTS
                                           NETWORK LOSS  = 0.0000E+00 WATTS
                                           EFFICIENCY    =  86.67 PERCENT



                                                - - - RADIATION PATTERNS - - -

  - - ANGLES - -           - POWER GAINS -       - - - POLARIZATION - - -    - - - E(THETA) - - -    - - - E(PHI) - - -
  THETA     PHI        VERT.   HOR.    TOTAL      AXIAL     TILT   SENSE     MAGNITUDE    PHASE      MAGNITUDE    PHASE 
 DEGREES  DEGREES       DB      DB      DB        RATIO     DEG.              VOLTS/M    DEGREES      VOLTS/M    DEGREES
   87.00    90.00     -17.71    6.96    6.97    0.04972    88.24  RIGHT     1.30769E-01   -17.80    2.23804E+00   -76.19






 ***** DATA CARD NO.  7   EN   0     1     1  1000  8.70000E+01  9.00000E+01  0.00000E+00  0.00000E+00  0.00000E+00  0.00000E+00

 RUN TIME =     0.203
