1



                                 *********************************************

                                    NUMERICAL ELECTROMAGNETICS CODE (NEC-2D)

                                 *********************************************




                                     - - - - COMMENTS - - - -


                          No comments specified                                                      
                                                                                                     




                                 - - - STRUCTURE SPECIFICATION - - -

                                     COORDINATES MUST BE INPUT IN
                                     METERS OR BE SCALED TO METERS
                                     BEFORE STRUCTURE INPUT IS ENDED


  WIRE                                                                               NO. OF    FIRST  LAST     TAG
  NO.        X1         Y1         Z1          X2         Y2         Z2      RADIUS   SEG.     SEG.   SEG.     NO.
     1    0.07600    0.00000    0.00000     0.07400    0.01300    0.00200    0.00101      1        1     1       1
     2    0.07400    0.01300    0.00200     0.07100    0.02600    0.00400    0.00101      1        2     2       1
     3    0.07100    0.02600    0.00400     0.06500    0.03800    0.00600    0.00101      1        3     3       1
     4    0.06500    0.03800    0.00600     0.05800    0.04900    0.00700    0.00101      1        4     4       1
     5    0.05800    0.04900    0.00700     0.04900    0.05800    0.00900    0.00101      1        5     5       1
     6    0.04900    0.05800    0.00900     0.03800    0.06500    0.01100    0.00101      1        6     6       1
     7    0.03800    0.06500    0.01100     0.02600    0.07100    0.01300    0.00101      1        7     7       1
     8    0.02600    0.07100    0.01300     0.01300    0.07400    0.01500    0.00101      1        8     8       1
     9    0.01300    0.07400    0.01500     0.00000    0.07600    0.01700    0.00101      1        9     9       1
    10    0.00000    0.07600    0.01700    -0.01300    0.07400    0.01800    0.00101      1       10    10       1
    11   -0.01300    0.07400    0.01800    -0.02600    0.07100    0.02000    0.00101      1       11    11       1
    12   -0.02600    0.07100    0.02000    -0.03800    0.06500    0.02200    0.00101      1       12    12       1
    13   -0.03800    0.06500    0.02200    -0.04900    0.05800    0.02400    0.00101      1       13    13       1
    14   -0.04900    0.05800    0.02400    -0.05800    0.04900    0.02600    0.00101      1       14    14       1
    15   -0.05800    0.04900    0.02600    -0.06500    0.03800    0.02800    0.00101      1       15    15       1
    16   -0.06500    0.03800    0.02800    -0.07100    0.02600    0.02900    0.00101      1       16    16       1
    17   -0.07100    0.02600    0.02900    -0.07400    0.01300    0.03100    0.00101      1       17    17       1
    18   -0.07400    0.01300    0.03100    -0.07600    0.00000    0.03300    0.00101      1       18    18       1
    19   -0.07600    0.00000    0.03300    -0.07400   -0.01300    0.03500    0.00101      1       19    19       1
    20   -0.07400   -0.01300    0.03500    -0.07100   -0.02600    0.03700    0.00101      1       20    20       1
    21   -0.07100   -0.02600    0.03700    -0.06500   -0.03800    0.03900    0.00101      1       21    21       1
    22   -0.06500   -0.03800    0.03900    -0.05800   -0.04900    0.04000    0.00101      1       22    22       1
    23   -0.05800   -0.04900    0.04000    -0.04900   -0.05800    0.04200    0.00101      1       23    23       1
    24   -0.04900   -0.05800    0.04200    -0.03800   -0.06500    0.04400    0.00101      1       24    24       1
    25   -0.03800   -0.06500    0.04400    -0.02600   -0.07100    0.04600    0.00101      1       25    25       1
    26   -0.02600   -0.07100    0.04600    -0.01300   -0.07400    0.04800    0.00101      1       26    26       1
    27   -0.01300   -0.07400    0.04800     0.00000   -0.07600    0.05000    0.00101      1       27    27       1
    28    0.00000   -0.07600    0.05000     0.01300   -0.07400    0.05100    0.00101      1       28    28       1
    29    0.01300   -0.07400    0.05100     0.02600   -0.07100    0.05300    0.00101      1       29    29       1
    30    0.02600   -0.07100    0.05300     0.03800   -0.06500    0.05500    0.00101      1       30    30       1
    31    0.03800   -0.06500    0.05500     0.04900   -0.05800    0.05700    0.00101      1       31    31       1
    32    0.04900   -0.05800    0.05700     0.05800   -0.04900    0.05900    0.00101      1       32    32       1
    33    0.05800   -0.04900    0.05900     0.06500   -0.03800    0.06100    0.00101      1       33    33       1
    34    0.06500   -0.03800    0.06100     0.07100   -0.02600    0.06200    0.00101      1       34    34       1
    35    0.07100   -0.02600    0.06200     0.07400   -0.01300    0.06400    0.00101      1       35    35       1
    36    0.07400   -0.01300    0.06400     0.07600    0.00000    0.06600    0.00101      1       36    36       1
    37    0.07600    0.00000    0.06600     0.07400    0.01300    0.06800    0.00101      1       37    37       1
    38    0.07400    0.01300    0.06800     0.07100    0.02600    0.07000    0.00101      1       38    38       1
    39    0.07100    0.02600    0.07000     0.06500    0.03800    0.07200    0.00101      1       39    39       1
    40    0.06500    0.03800    0.07200     0.05800    0.04900    0.07400    0.00101      1       40    40       1
    41    0.05800    0.04900    0.07400     0.04900    0.05800    0.07500    0.00101      1       41    41       1
    42    0.04900    0.05800    0.07500     0.03800    0.06500    0.07700    0.00101      1       42    42       1
    43    0.03800    0.06500    0.07700     0.02600    0.07100    0.07900    0.00101      1       43    43       1
    44    0.02600    0.07100    0.07900     0.01300    0.07400    0.08100    0.00101      1       44    44       1
    45    0.01300    0.07400    0.08100     0.00000    0.07600    0.08300    0.00101      1       45    45       1
    46    0.00000    0.07600    0.08300    -0.01300    0.07400    0.08500    0.00101      1       46    46       1
    47   -0.01300    0.07400    0.08500    -0.02600    0.07100    0.08600    0.00101      1       47    47       1
    48   -0.02600    0.07100    0.08600    -0.03800    0.06500    0.08800    0.00101      1       48    48       1
    49   -0.03800    0.06500    0.08800    -0.04900    0.05800    0.09000    0.00101      1       49    49       1
    50   -0.04900    0.05800    0.09000    -0.05800    0.04900    0.09200    0.00101      1       50    50       1
    51   -0.05800    0.04900    0.09200    -0.06500    0.03800    0.09400    0.00101      1       51    51       1
    52   -0.06500    0.03800    0.09400    -0.07100    0.02600    0.09600    0.00101      1       52    52       1
    53   -0.07100    0.02600    0.09600    -0.07400    0.01300    0.09700    0.00101      1       53    53       1
    54   -0.07400    0.01300    0.09700    -0.07600    0.00000    0.09900    0.00101      1       54    54       1
    55   -0.07600    0.00000    0.09900    -0.07400   -0.01300    0.10100    0.00101      1       55    55       1
    56   -0.07400   -0.01300    0.10100    -0.07100   -0.02600    0.10300    0.00101      1       56    56       1
    57   -0.07100   -0.02600    0.10300    -0.06500   -0.03800    0.10500    0.00101      1       57    57       1
    58   -0.06500   -0.03800    0.10500    -0.05800   -0.04900    0.10700    0.00101      1       58    58       1
    59   -0.05800   -0.04900    0.10700    -0.04900   -0.05800    0.10800    0.00101      1       59    59       1
    60   -0.04900   -0.05800    0.10800    -0.03800   -0.06500    0.11000    0.00101      1       60    60       1
    61   -0.03800   -0.06500    0.11000    -0.02600   -0.07100    0.11200    0.00101      1       61    61       1
    62   -0.02600   -0.07100    0.11200    -0.01300   -0.07400    0.11400    0.00101      1       62    62       1
    63   -0.01300   -0.07400    0.11400     0.00000   -0.07600    0.11600    0.00101      1       63    63       1
    64    0.00000   -0.07600    0.11600     0.01300   -0.07400    0.11800    0.00101      1       64    64       1
    65    0.01300   -0.07400    0.11800     0.02600   -0.07100    0.11900    0.00101      1       65    65       1
    66    0.02600   -0.07100    0.11900     0.03800   -0.06500    0.12100    0.00101      1       66    66       1
    67    0.03800   -0.06500    0.12100     0.04900   -0.05800    0.12300    0.00101      1       67    67       1
    68    0.04900   -0.05800    0.12300     0.05800   -0.04900    0.12500    0.00101      1       68    68       1
    69    0.05800   -0.04900    0.12500     0.06500   -0.03800    0.12700    0.00101      1       69    69       1
    70    0.06500   -0.03800    0.12700     0.07100   -0.02600    0.12900    0.00101      1       70    70       1
    71    0.07100   -0.02600    0.12900     0.07400   -0.01300    0.13000    0.00101      1       71    71       1
    72    0.07400   -0.01300    0.13000     0.07600    0.00000    0.13200    0.00101      1       72    72       1
    73    0.07100    0.00000    0.06400     0.07100    0.00700    0.06400    0.00100      1       73    73     999
    74    0.07100    0.00700    0.06400     0.06900    0.01400    0.06400    0.00100      1       74    74       4
    75    0.06900    0.01400    0.06400     0.06600    0.02000    0.06400    0.00100      1       75    75       4
    76    0.06600    0.02000    0.06400     0.06200    0.02600    0.06400    0.00100      1       76    76       4
    77    0.06200    0.02600    0.06400     0.05700    0.03100    0.06400    0.00100      1       77    77       4
    78    0.05700    0.03100    0.06400     0.05100    0.03500    0.06400    0.00100      1       78    78       4
    79    0.05100    0.03500    0.06400     0.04500    0.03800    0.06400    0.00100      1       79    79       4
    80    0.04500    0.03800    0.06400     0.03800    0.04000    0.06400    0.00100      1       80    80       4
    81    0.03800    0.04000    0.06400     0.03100    0.04100    0.06400    0.00100      1       81    81       4
    82    0.03100    0.04100    0.06400     0.02400    0.04000    0.06400    0.00100      1       82    82       4
    83    0.02400    0.04000    0.06400     0.01700    0.03800    0.06400    0.00100      1       83    83       4
    84    0.01700    0.03800    0.06400     0.01000    0.03500    0.06400    0.00100      1       84    84       4
    85    0.01000    0.03500    0.06400     0.00400    0.03100    0.06400    0.00100      1       85    85       4
    86    0.00400    0.03100    0.06400    -0.00100    0.02600    0.06400    0.00100      1       86    86       4
    87   -0.00100    0.02600    0.06400    -0.00500    0.02000    0.06400    0.00100      1       87    87       4
    88   -0.00500    0.02000    0.06400    -0.00800    0.01400    0.06400    0.00100      1       88    88       4
    89   -0.00800    0.01400    0.06400    -0.01000    0.00700    0.06400    0.00100      1       89    89       4
    90   -0.01000    0.00700    0.06400    -0.01000    0.00000    0.06400    0.00100      1       90    90       4
    91   -0.01000    0.00000    0.06400    -0.01000   -0.00700    0.06400    0.00100      1       91    91       4
    92   -0.01000   -0.00700    0.06400    -0.00800   -0.01400    0.06400    0.00100      1       92    92       4
    93   -0.00800   -0.01400    0.06400    -0.00500   -0.02000    0.06400    0.00100      1       93    93       4
    94   -0.00500   -0.02000    0.06400    -0.00100   -0.02600    0.06400    0.00100      1       94    94       4
    95   -0.00100   -0.02600    0.06400     0.00400   -0.03100    0.06400    0.00100      1       95    95       4
    96    0.00400   -0.03100    0.06400     0.01000   -0.03500    0.06400    0.00100      1       96    96       4
    97    0.01000   -0.03500    0.06400     0.01700   -0.03800    0.06400    0.00100      1       97    97       4
    98    0.01700   -0.03800    0.06400     0.02400   -0.04000    0.06400    0.00100      1       98    98       4
    99    0.02400   -0.04000    0.06400     0.03100   -0.04100    0.06400    0.00100      1       99    99       4
   100    0.03100   -0.04100    0.06400     0.03800   -0.04000    0.06400    0.00100      1      100   100       4
   101    0.03800   -0.04000    0.06400     0.04500   -0.03800    0.06400    0.00100      1      101   101       4
   102    0.04500   -0.03800    0.06400     0.05100   -0.03500    0.06400    0.00100      1      102   102       4
   103    0.05100   -0.03500    0.06400     0.05700   -0.03100    0.06400    0.00100      1      103   103       4
   104    0.05700   -0.03100    0.06400     0.06200   -0.02600    0.06400    0.00100      1      104   104       4
   105    0.06200   -0.02600    0.06400     0.06600   -0.02000    0.06400    0.00100      1      105   105       4
   106    0.06600   -0.02000    0.06400     0.06900   -0.01400    0.06400    0.00100      1      106   106       4
   107    0.06900   -0.01400    0.06400     0.07100   -0.00700    0.06400    0.00100      1      107   107       4
   108    0.07100   -0.00700    0.06400     0.07100    0.00000    0.06400    0.00100      1      108   108       4
   109    0.07600    0.00000    0.25600     0.07400   -0.01300    0.25800    0.00101      1      109   109       2
   110    0.07400   -0.01300    0.25800     0.07100   -0.02600    0.26000    0.00101      1      110   110       2
   111    0.07100   -0.02600    0.26000     0.06500   -0.03800    0.26200    0.00101      1      111   111       2
   112    0.06500   -0.03800    0.26200     0.05800   -0.04900    0.26400    0.00101      1      112   112       2
   113    0.05800   -0.04900    0.26400     0.04900   -0.05800    0.26600    0.00101      1      113   113       2
   114    0.04900   -0.05800    0.26600     0.03800   -0.06500    0.26700    0.00101      1      114   114       2
   115    0.03800   -0.06500    0.26700     0.02600   -0.07100    0.26900    0.00101      1      115   115       2
   116    0.02600   -0.07100    0.26900     0.01300   -0.07400    0.27100    0.00101      1      116   116       2
   117    0.01300   -0.07400    0.27100     0.00000   -0.07600    0.27300    0.00101      1      117   117       2
   118    0.00000   -0.07600    0.27300    -0.01300   -0.07400    0.27500    0.00101      1      118   118       2
   119   -0.01300   -0.07400    0.27500    -0.02600   -0.07100    0.27700    0.00101      1      119   119       2
   120   -0.02600   -0.07100    0.27700    -0.03800   -0.06500    0.27800    0.00101      1      120   120       2
   121   -0.03800   -0.06500    0.27800    -0.04900   -0.05800    0.28000    0.00101      1      121   121       2
   122   -0.04900   -0.05800    0.28000    -0.05800   -0.04900    0.28200    0.00101      1      122   122       2
   123   -0.05800   -0.04900    0.28200    -0.06500   -0.03800    0.28400    0.00101      1      123   123       2
   124   -0.06500   -0.03800    0.28400    -0.07100   -0.02600    0.28600    0.00101      1      124   124       2
   125   -0.07100   -0.02600    0.28600    -0.07400   -0.01300    0.28800    0.00101      1      125   125       2
   126   -0.07400   -0.01300    0.28800    -0.07600    0.00000    0.28900    0.00101      1      126   126       2
   127   -0.07600    0.00000    0.28900    -0.07400    0.01300    0.29100    0.00101      1      127   127       2
   128   -0.07400    0.01300    0.29100    -0.07100    0.02600    0.29300    0.00101      1      128   128       2
   129   -0.07100    0.02600    0.29300    -0.06500    0.03800    0.29500    0.00101      1      129   129       2
   130   -0.06500    0.03800    0.29500    -0.05800    0.04900    0.29700    0.00101      1      130   130       2
   131   -0.05800    0.04900    0.29700    -0.04900    0.05800    0.29900    0.00101      1      131   131       2
   132   -0.04900    0.05800    0.29900    -0.03800    0.06500    0.30100    0.00101      1      132   132       2
   133   -0.03800    0.06500    0.30100    -0.02600    0.07100    0.30200    0.00101      1      133   133       2
   134   -0.02600    0.07100    0.30200    -0.01300    0.07400    0.30400    0.00101      1      134   134       2
   135   -0.01300    0.07400    0.30400     0.00000    0.07600    0.30600    0.00101      1      135   135       2
   136    0.00000    0.07600    0.30600     0.01300    0.07400    0.30800    0.00101      1      136   136       2
   137    0.01300    0.07400    0.30800     0.02600    0.07100    0.31000    0.00101      1      137   137       2
   138    0.02600    0.07100    0.31000     0.03800    0.06500    0.31200    0.00101      1      138   138       2
   139    0.03800    0.06500    0.31200     0.04900    0.05800    0.31300    0.00101      1      139   139       2
   140    0.04900    0.05800    0.31300     0.05800    0.04900    0.31500    0.00101      1      140   140       2
   141    0.05800    0.04900    0.31500     0.06500    0.03800    0.31700    0.00101      1      141   141       2
   142    0.06500    0.03800    0.31700     0.07100    0.02600    0.31900    0.00101      1      142   142       2
   143    0.07100    0.02600    0.31900     0.07400    0.01300    0.32100    0.00101      1      143   143       2
   144    0.07400    0.01300    0.32100     0.07600    0.00000    0.32300    0.00101      1      144   144       2
   145    0.07600    0.00000    0.32300     0.07400   -0.01300    0.32400    0.00101      1      145   145       2
   146    0.07400   -0.01300    0.32400     0.07100   -0.02600    0.32600    0.00101      1      146   146       2
   147    0.07100   -0.02600    0.32600     0.06500   -0.03800    0.32800    0.00101      1      147   147       2
   148    0.06500   -0.03800    0.32800     0.05800   -0.04900    0.33000    0.00101      1      148   148       2
   149    0.05800   -0.04900    0.33000     0.04900   -0.05800    0.33200    0.00101      1      149   149       2
   150    0.04900   -0.05800    0.33200     0.03800   -0.06500    0.33400    0.00101      1      150   150       2
   151    0.03800   -0.06500    0.33400     0.02600   -0.07100    0.33500    0.00101      1      151   151       2
   152    0.02600   -0.07100    0.33500     0.01300   -0.07400    0.33700    0.00101      1      152   152       2
   153    0.01300   -0.07400    0.33700     0.00000   -0.07600    0.33900    0.00101      1      153   153       2
   154    0.00000   -0.07600    0.33900    -0.01300   -0.07400    0.34100    0.00101      1      154   154       2
   155   -0.01300   -0.07400    0.34100    -0.02600   -0.07100    0.34300    0.00101      1      155   155       2
   156   -0.02600   -0.07100    0.34300    -0.03800   -0.06500    0.34500    0.00101      1      156   156       2
   157   -0.03800   -0.06500    0.34500    -0.04900   -0.05800    0.34600    0.00101      1      157   157       2
   158   -0.04900   -0.05800    0.34600    -0.05800   -0.04900    0.34800    0.00101      1      158   158       2
   159   -0.05800   -0.04900    0.34800    -0.06500   -0.03800    0.35000    0.00101      1      159   159       2
   160   -0.06500   -0.03800    0.35000    -0.07100   -0.02600    0.35200    0.00101      1      160   160       2
   161   -0.07100   -0.02600    0.35200    -0.07400   -0.01300    0.35400    0.00101      1      161   161       2
   162   -0.07400   -0.01300    0.35400    -0.07600    0.00000    0.35600    0.00101      1      162   162       2
   163   -0.07600    0.00000    0.35600    -0.07400    0.01300    0.35700    0.00101      1      163   163       2
   164   -0.07400    0.01300    0.35700    -0.07100    0.02600    0.35900    0.00101      1      164   164       2
   165   -0.07100    0.02600    0.35900    -0.06500    0.03800    0.36100    0.00101      1      165   165       2
   166   -0.06500    0.03800    0.36100    -0.05800    0.04900    0.36300    0.00101      1      166   166       2
   167   -0.05800    0.04900    0.36300    -0.04900    0.05800    0.36500    0.00101      1      167   167       2
   168   -0.04900    0.05800    0.36500    -0.03800    0.06500    0.36700    0.00101      1      168   168       2
   169   -0.03800    0.06500    0.36700    -0.02600    0.07100    0.36900    0.00101      1      169   169       2
   170   -0.02600    0.07100    0.36900    -0.01300    0.07400    0.37000    0.00101      1      170   170       2
   171   -0.01300    0.07400    0.37000     0.00000    0.07600    0.37200    0.00101      1      171   171       2
   172    0.00000    0.07600    0.37200     0.01300    0.07400    0.37400    0.00101      1      172   172       2
   173    0.01300    0.07400    0.37400     0.02600    0.07100    0.37600    0.00101      1      173   173       2
   174    0.02600    0.07100    0.37600     0.03800    0.06500    0.37800    0.00101      1      174   174       2
   175    0.03800    0.06500    0.37800     0.04900    0.05800    0.38000    0.00101      1      175   175       2
   176    0.04900    0.05800    0.38000     0.05800    0.04900    0.38100    0.00101      1      176   176       2
   177    0.05800    0.04900    0.38100     0.06500    0.03800    0.38300    0.00101      1      177   177       2
   178    0.06500    0.03800    0.38300     0.07100    0.02600    0.38500    0.00101      1      178   178       2
   179    0.07100    0.02600    0.38500     0.07400    0.01300    0.38700    0.00101      1      179   179       2
   180    0.07400    0.01300    0.38700     0.07600    0.00000    0.38900    0.00101      1      180   180       2
   181    0.07600    0.00000    0.13200     0.07600    0.00000    0.25600    0.00101      3      181   183       3
      THE STRUCTURE HAS BEEN MOVED, MOVE DATA CARD IS -
        0    0   0.00000   0.00000   0.00000   0.00000   0.00000   8.00000   0.00000

   GROUND PLANE SPECIFIED.

   WHERE WIRE ENDS TOUCH GROUND, CURRENT WILL BE INTERPOLATED TO IMAGE IN GROUND PLANE.


   TOTAL SEGMENTS USED=  183     NO. SEG. IN A SYMMETRIC CELL=  183     SYMMETRY FLAG=  0


         - MULTIPLE WIRE JUNCTIONS -
 JUNCTION    SEGMENTS  (- FOR END 1, + FOR END 2)
  NONE




                                 - - - - SEGMENTATION DATA - - - -

                                        COORDINATES IN METERS

                         I+ AND I- INDICATE THE SEGMENTS BEFORE AND AFTER I


  SEG.   COORDINATES OF SEG. CENTER     SEG.     ORIENTATION ANGLES    WIRE    CONNECTION DATA   TAG
  NO.       X         Y         Z       LENGTH     ALPHA     BETA      RADIUS    I-   I    I+    NO.
     1   0.07500   0.00650   8.00100   0.01330    8.64600  98.74616   0.00101     0    1    2      1
     2   0.07250   0.01950   8.00300   0.01349    8.52552 102.99462   0.00101     1    2    3      1
     3   0.06800   0.03200   8.00500   0.01356    8.47871 116.56505   0.00101     2    3    4      1
     4   0.06150   0.04350   8.00650   0.01308    4.38580 122.47119   0.00101     3    4    5      1
     5   0.05350   0.05350   8.00800   0.01288    8.93014 135.00000   0.00101     4    5    6      1
     6   0.04350   0.06150   8.01000   0.01319    8.72080 147.52881   0.00101     5    6    7      1
     7   0.03200   0.06800   8.01200   0.01356    8.47871 153.43495   0.00101     6    7    8      1
     8   0.01950   0.07250   8.01400   0.01349    8.52552 167.00538   0.00101     7    8    9      1
     9   0.00650   0.07500   8.01600   0.01330    8.64600 171.25384   0.00101     8    9   10      1
    10  -0.00650   0.07500   8.01750   0.01319    4.34775-171.25384   0.00101     9   10   11      1
    11  -0.01950   0.07250   8.01900   0.01349    8.52552-167.00538   0.00101    10   11   12      1
    12  -0.03200   0.06800   8.02100   0.01356    8.47871-153.43495   0.00101    11   12   13      1
    13  -0.04350   0.06150   8.02300   0.01319    8.72080-147.52881   0.00101    12   13   14      1
    14  -0.05350   0.05350   8.02500   0.01288    8.93014-135.00000   0.00101    13   14   15      1
    15  -0.06150   0.04350   8.02700   0.01319    8.72080-122.47119   0.00101    14   15   16      1
    16  -0.06800   0.03200   8.02850   0.01345    4.26269-116.56505   0.00101    15   16   17      1
    17  -0.07250   0.01950   8.03000   0.01349    8.52552-102.99462   0.00101    16   17   18      1
    18  -0.07500   0.00650   8.03200   0.01330    8.64600 -98.74616   0.00101    17   18   19      1
    19  -0.07500  -0.00650   8.03400   0.01330    8.64600 -81.25384   0.00101    18   19   20      1
    20  -0.07250  -0.01950   8.03600   0.01349    8.52552 -77.00538   0.00101    19   20   21      1
    21  -0.06800  -0.03200   8.03800   0.01356    8.47871 -63.43495   0.00101    20   21   22      1
    22  -0.06150  -0.04350   8.03950   0.01308    4.38580 -57.52881   0.00101    21   22   23      1
    23  -0.05350  -0.05350   8.04100   0.01288    8.93014 -45.00000   0.00101    22   23   24      1
    24  -0.04350  -0.06150   8.04300   0.01319    8.72080 -32.47119   0.00101    23   24   25      1
    25  -0.03200  -0.06800   8.04500   0.01356    8.47871 -26.56505   0.00101    24   25   26      1
    26  -0.01950  -0.07250   8.04700   0.01349    8.52552 -12.99462   0.00101    25   26   27      1
    27  -0.00650  -0.07500   8.04900   0.01330    8.64600  -8.74616   0.00101    26   27   28      1
    28   0.00650  -0.07500   8.05050   0.01319    4.34775   8.74616   0.00101    27   28   29      1
    29   0.01950  -0.07250   8.05200   0.01349    8.52552  12.99462   0.00101    28   29   30      1
    30   0.03200  -0.06800   8.05400   0.01356    8.47871  26.56505   0.00101    29   30   31      1
    31   0.04350  -0.06150   8.05600   0.01319    8.72080  32.47119   0.00101    30   31   32      1
    32   0.05350  -0.05350   8.05800   0.01288    8.93014  45.00000   0.00101    31   32   33      1
    33   0.06150  -0.04350   8.06000   0.01319    8.72080  57.52881   0.00101    32   33   34      1
    34   0.06800  -0.03200   8.06150   0.01345    4.26269  63.43495   0.00101    33   34   35      1
    35   0.07250  -0.01950   8.06300   0.01349    8.52552  77.00538   0.00101    34   35   36      1
    36   0.07500  -0.00650   8.06500   0.01330    8.64600  81.25384   0.00101    35   36   37      1
    37   0.07500   0.00650   8.06700   0.01330    8.64600  98.74616   0.00101    36   37   38      1
    38   0.07250   0.01950   8.06900   0.01349    8.52552 102.99462   0.00101    37   38   39      1
    39   0.06800   0.03200   8.07100   0.01356    8.47871 116.56505   0.00101    38   39   40      1
    40   0.06150   0.04350   8.07300   0.01319    8.72080 122.47119   0.00101    39   40   41      1
    41   0.05350   0.05350   8.07450   0.01277    4.49235 135.00000   0.00101    40   41   42      1
    42   0.04350   0.06150   8.07600   0.01319    8.72080 147.52881   0.00101    41   42   43      1
    43   0.03200   0.06800   8.07800   0.01356    8.47871 153.43495   0.00101    42   43   44      1
    44   0.01950   0.07250   8.08000   0.01349    8.52552 167.00538   0.00101    43   44   45      1
    45   0.00650   0.07500   8.08200   0.01330    8.64600 171.25384   0.00101    44   45   46      1
    46  -0.00650   0.07500   8.08400   0.01330    8.64600-171.25384   0.00101    45   46   47      1
    47  -0.01950   0.07250   8.08550   0.01338    4.28649-167.00538   0.00101    46   47   48      1
    48  -0.03200   0.06800   8.08700   0.01356    8.47871-153.43495   0.00101    47   48   49      1
    49  -0.04350   0.06150   8.08900   0.01319    8.72080-147.52881   0.00101    48   49   50      1
    50  -0.05350   0.05350   8.09100   0.01288    8.93014-135.00000   0.00101    49   50   51      1
    51  -0.06150   0.04350   8.09300   0.01319    8.72080-122.47119   0.00101    50   51   52      1
    52  -0.06800   0.03200   8.09500   0.01356    8.47871-116.56505   0.00101    51   52   53      1
    53  -0.07250   0.01950   8.09650   0.01338    4.28649-102.99462   0.00101    52   53   54      1
    54  -0.07500   0.00650   8.09800   0.01330    8.64600 -98.74616   0.00101    53   54   55      1
    55  -0.07500  -0.00650   8.10000   0.01330    8.64600 -81.25384   0.00101    54   55   56      1
    56  -0.07250  -0.01950   8.10200   0.01349    8.52552 -77.00538   0.00101    55   56   57      1
    57  -0.06800  -0.03200   8.10400   0.01356    8.47871 -63.43495   0.00101    56   57   58      1
    58  -0.06150  -0.04350   8.10600   0.01319    8.72080 -57.52881   0.00101    57   58   59      1
    59  -0.05350  -0.05350   8.10750   0.01277    4.49235 -45.00000   0.00101    58   59   60      1
    60  -0.04350  -0.06150   8.10900   0.01319    8.72080 -32.47119   0.00101    59   60   61      1
    61  -0.03200  -0.06800   8.11100   0.01356    8.47871 -26.56505   0.00101    60   61   62      1
    62  -0.01950  -0.07250   8.11300   0.01349    8.52552 -12.99462   0.00101    61   62   63      1
    63  -0.00650  -0.07500   8.11500   0.01330    8.64600  -8.74616   0.00101    62   63   64      1
    64   0.00650  -0.07500   8.11700   0.01330    8.64600   8.74616   0.00101    63   64   65      1
    65   0.01950  -0.07250   8.11850   0.01338    4.28649  12.99462   0.00101    64   65   66      1
    66   0.03200  -0.06800   8.12000   0.01356    8.47871  26.56505   0.00101    65   66   67      1
    67   0.04350  -0.06150   8.12200   0.01319    8.72080  32.47119   0.00101    66   67   68      1
    68   0.05350  -0.05350   8.12400   0.01288    8.93014  45.00000   0.00101    67   68   69      1
    69   0.06150  -0.04350   8.12600   0.01319    8.72080  57.52881   0.00101    68   69   70      1
    70   0.06800  -0.03200   8.12800   0.01356    8.47871  63.43495   0.00101    69   70   71      1
    71   0.07250  -0.01950   8.12950   0.01338    4.28649  77.00538   0.00101    70   71   72      1
    72   0.07500  -0.00650   8.13100   0.01330    8.64600  81.25384   0.00101    71   72  181      1
    73   0.07100   0.00350   8.06400   0.00700    0.00000  90.00000   0.00100   108   73   74    999
    74   0.07000   0.01050   8.06400   0.00728    0.00000 105.94540   0.00100    73   74   75      4
    75   0.06750   0.01700   8.06400   0.00671    0.00000 116.56505   0.00100    74   75   76      4
    76   0.06400   0.02300   8.06400   0.00721    0.00000 123.69007   0.00100    75   76   77      4
    77   0.05950   0.02850   8.06400   0.00707    0.00000 135.00000   0.00100    76   77   78      4
    78   0.05400   0.03300   8.06400   0.00721    0.00000 146.30993   0.00100    77   78   79      4
    79   0.04800   0.03650   8.06400   0.00671    0.00000 153.43495   0.00100    78   79   80      4
    80   0.04150   0.03900   8.06400   0.00728    0.00000 164.05460   0.00100    79   80   81      4
    81   0.03450   0.04050   8.06400   0.00707    0.00000 171.86990   0.00100    80   81   82      4
    82   0.02750   0.04050   8.06400   0.00707    0.00000-171.86990   0.00100    81   82   83      4
    83   0.02050   0.03900   8.06400   0.00728    0.00000-164.05460   0.00100    82   83   84      4
    84   0.01350   0.03650   8.06400   0.00762    0.00000-156.80141   0.00100    83   84   85      4
    85   0.00700   0.03300   8.06400   0.00721    0.00000-146.30993   0.00100    84   85   86      4
    86   0.00150   0.02850   8.06400   0.00707    0.00000-135.00000   0.00100    85   86   87      4
    87  -0.00300   0.02300   8.06400   0.00721    0.00000-123.69007   0.00100    86   87   88      4
    88  -0.00650   0.01700   8.06400   0.00671    0.00000-116.56505   0.00100    87   88   89      4
    89  -0.00900   0.01050   8.06400   0.00728    0.00000-105.94540   0.00100    88   89   90      4
    90  -0.01000   0.00350   8.06400   0.00700    0.00000 -90.00000   0.00100    89   90   91      4
    91  -0.01000  -0.00350   8.06400   0.00700    0.00000 -90.00000   0.00100    90   91   92      4
    92  -0.00900  -0.01050   8.06400   0.00728    0.00000 -74.05460   0.00100    91   92   93      4
    93  -0.00650  -0.01700   8.06400   0.00671    0.00000 -63.43495   0.00100    92   93   94      4
    94  -0.00300  -0.02300   8.06400   0.00721    0.00000 -56.30993   0.00100    93   94   95      4
    95   0.00150  -0.02850   8.06400   0.00707    0.00000 -45.00000   0.00100    94   95   96      4
    96   0.00700  -0.03300   8.06400   0.00721    0.00000 -33.69007   0.00100    95   96   97      4
    97   0.01350  -0.03650   8.06400   0.00762    0.00000 -23.19859   0.00100    96   97   98      4
    98   0.02050  -0.03900   8.06400   0.00728    0.00000 -15.94540   0.00100    97   98   99      4
    99   0.02750  -0.04050   8.06400   0.00707    0.00000  -8.13010   0.00100    98   99  100      4
   100   0.03450  -0.04050   8.06400   0.00707    0.00000   8.13010   0.00100    99  100  101      4
   101   0.04150  -0.03900   8.06400   0.00728    0.00000  15.94540   0.00100   100  101  102      4
   102   0.04800  -0.03650   8.06400   0.00671    0.00000  26.56505   0.00100   101  102  103      4
   103   0.05400  -0.03300   8.06400   0.00721    0.00000  33.69007   0.00100   102  103  104      4
   104   0.05950  -0.02850   8.06400   0.00707    0.00000  45.00000   0.00100   103  104  105      4
   105   0.06400  -0.02300   8.06400   0.00721    0.00000  56.30993   0.00100   104  105  106      4
   106   0.06750  -0.01700   8.06400   0.00671    0.00000  63.43495   0.00100   105  106  107      4
   107   0.07000  -0.01050   8.06400   0.00728    0.00000  74.05460   0.00100   106  107  108      4
   108   0.07100  -0.00350   8.06400   0.00700    0.00000  90.00000   0.00100   107  108   73      4
   109   0.07500  -0.00650   8.25700   0.01330    8.64600 -98.74616   0.00101   183  109  110      2
   110   0.07250  -0.01950   8.25900   0.01349    8.52552-102.99462   0.00101   109  110  111      2
   111   0.06800  -0.03200   8.26100   0.01356    8.47871-116.56505   0.00101   110  111  112      2
   112   0.06150  -0.04350   8.26300   0.01319    8.72080-122.47119   0.00101   111  112  113      2
   113   0.05350  -0.05350   8.26500   0.01288    8.93014-135.00000   0.00101   112  113  114      2
   114   0.04350  -0.06150   8.26650   0.01308    4.38580-147.52881   0.00101   113  114  115      2
   115   0.03200  -0.06800   8.26800   0.01356    8.47871-153.43495   0.00101   114  115  116      2
   116   0.01950  -0.07250   8.27000   0.01349    8.52552-167.00538   0.00101   115  116  117      2
   117   0.00650  -0.07500   8.27200   0.01330    8.64600-171.25384   0.00101   116  117  118      2
   118  -0.00650  -0.07500   8.27400   0.01330    8.64600 171.25384   0.00101   117  118  119      2
   119  -0.01950  -0.07250   8.27600   0.01349    8.52552 167.00538   0.00101   118  119  120      2
   120  -0.03200  -0.06800   8.27750   0.01345    4.26269 153.43495   0.00101   119  120  121      2
   121  -0.04350  -0.06150   8.27900   0.01319    8.72080 147.52881   0.00101   120  121  122      2
   122  -0.05350  -0.05350   8.28100   0.01288    8.93014 135.00000   0.00101   121  122  123      2
   123  -0.06150  -0.04350   8.28300   0.01319    8.72080 122.47119   0.00101   122  123  124      2
   124  -0.06800  -0.03200   8.28500   0.01356    8.47871 116.56505   0.00101   123  124  125      2
   125  -0.07250  -0.01950   8.28700   0.01349    8.52552 102.99462   0.00101   124  125  126      2
   126  -0.07500  -0.00650   8.28850   0.01319    4.34775  98.74616   0.00101   125  126  127      2
   127  -0.07500   0.00650   8.29000   0.01330    8.64600  81.25384   0.00101   126  127  128      2
   128  -0.07250   0.01950   8.29200   0.01349    8.52552  77.00538   0.00101   127  128  129      2
   129  -0.06800   0.03200   8.29400   0.01356    8.47871  63.43495   0.00101   128  129  130      2
   130  -0.06150   0.04350   8.29600   0.01319    8.72080  57.52881   0.00101   129  130  131      2
   131  -0.05350   0.05350   8.29800   0.01288    8.93014  45.00000   0.00101   130  131  132      2
   132  -0.04350   0.06150   8.30000   0.01319    8.72080  32.47119   0.00101   131  132  133      2
   133  -0.03200   0.06800   8.30150   0.01345    4.26269  26.56505   0.00101   132  133  134      2
   134  -0.01950   0.07250   8.30300   0.01349    8.52552  12.99462   0.00101   133  134  135      2
   135  -0.00650   0.07500   8.30500   0.01330    8.64600   8.74616   0.00101   134  135  136      2
   136   0.00650   0.07500   8.30700   0.01330    8.64600  -8.74616   0.00101   135  136  137      2
   137   0.01950   0.07250   8.30900   0.01349    8.52552 -12.99462   0.00101   136  137  138      2
   138   0.03200   0.06800   8.31100   0.01356    8.47871 -26.56505   0.00101   137  138  139      2
   139   0.04350   0.06150   8.31250   0.01308    4.38580 -32.47119   0.00101   138  139  140      2
   140   0.05350   0.05350   8.31400   0.01288    8.93014 -45.00000   0.00101   139  140  141      2
   141   0.06150   0.04350   8.31600   0.01319    8.72080 -57.52881   0.00101   140  141  142      2
   142   0.06800   0.03200   8.31800   0.01356    8.47871 -63.43495   0.00101   141  142  143      2
   143   0.07250   0.01950   8.32000   0.01349    8.52552 -77.00538   0.00101   142  143  144      2
   144   0.07500   0.00650   8.32200   0.01330    8.64600 -81.25384   0.00101   143  144  145      2
   145   0.07500  -0.00650   8.32350   0.01319    4.34775 -98.74616   0.00101   144  145  146      2
   146   0.07250  -0.01950   8.32500   0.01349    8.52552-102.99462   0.00101   145  146  147      2
   147   0.06800  -0.03200   8.32700   0.01356    8.47871-116.56505   0.00101   146  147  148      2
   148   0.06150  -0.04350   8.32900   0.01319    8.72080-122.47119   0.00101   147  148  149      2
   149   0.05350  -0.05350   8.33100   0.01288    8.93014-135.00000   0.00101   148  149  150      2
   150   0.04350  -0.06150   8.33300   0.01319    8.72080-147.52881   0.00101   149  150  151      2
   151   0.03200  -0.06800   8.33450   0.01345    4.26269-153.43495   0.00101   150  151  152      2
   152   0.01950  -0.07250   8.33600   0.01349    8.52552-167.00538   0.00101   151  152  153      2
   153   0.00650  -0.07500   8.33800   0.01330    8.64600-171.25384   0.00101   152  153  154      2
   154  -0.00650  -0.07500   8.34000   0.01330    8.64600 171.25384   0.00101   153  154  155      2
   155  -0.01950  -0.07250   8.34200   0.01349    8.52552 167.00538   0.00101   154  155  156      2
   156  -0.03200  -0.06800   8.34400   0.01356    8.47871 153.43495   0.00101   155  156  157      2
   157  -0.04350  -0.06150   8.34550   0.01308    4.38580 147.52881   0.00101   156  157  158      2
   158  -0.05350  -0.05350   8.34700   0.01288    8.93014 135.00000   0.00101   157  158  159      2
   159  -0.06150  -0.04350   8.34900   0.01319    8.72080 122.47119   0.00101   158  159  160      2
   160  -0.06800  -0.03200   8.35100   0.01356    8.47871 116.56505   0.00101   159  160  161      2
   161  -0.07250  -0.01950   8.35300   0.01349    8.52552 102.99462   0.00101   160  161  162      2
   162  -0.07500  -0.00650   8.35500   0.01330    8.64600  98.74616   0.00101   161  162  163      2
   163  -0.07500   0.00650   8.35650   0.01319    4.34775  81.25384   0.00101   162  163  164      2
   164  -0.07250   0.01950   8.35800   0.01349    8.52552  77.00538   0.00101   163  164  165      2
   165  -0.06800   0.03200   8.36000   0.01356    8.47871  63.43495   0.00101   164  165  166      2
   166  -0.06150   0.04350   8.36200   0.01319    8.72080  57.52881   0.00101   165  166  167      2
   167  -0.05350   0.05350   8.36400   0.01288    8.93014  45.00000   0.00101   166  167  168      2
   168  -0.04350   0.06150   8.36600   0.01319    8.72080  32.47119   0.00101   167  168  169      2
   169  -0.03200   0.06800   8.36800   0.01356    8.47871  26.56505   0.00101   168  169  170      2
   170  -0.01950   0.07250   8.36950   0.01338    4.28649  12.99462   0.00101   169  170  171      2
   171  -0.00650   0.07500   8.37100   0.01330    8.64600   8.74616   0.00101   170  171  172      2
   172   0.00650   0.07500   8.37300   0.01330    8.64600  -8.74616   0.00101   171  172  173      2
   173   0.01950   0.07250   8.37500   0.01349    8.52552 -12.99462   0.00101   172  173  174      2
   174   0.03200   0.06800   8.37700   0.01356    8.47871 -26.56505   0.00101   173  174  175      2
   175   0.04350   0.06150   8.37900   0.01319    8.72080 -32.47119   0.00101   174  175  176      2
   176   0.05350   0.05350   8.38050   0.01277    4.49235 -45.00000   0.00101   175  176  177      2
   177   0.06150   0.04350   8.38200   0.01319    8.72080 -57.52881   0.00101   176  177  178      2
   178   0.06800   0.03200   8.38400   0.01356    8.47871 -63.43495   0.00101   177  178  179      2
   179   0.07250   0.01950   8.38600   0.01349    8.52552 -77.00538   0.00101   178  179  180      2
   180   0.07500   0.00650   8.38800   0.01330    8.64600 -81.25384   0.00101   179  180    0      2
   181   0.07600   0.00000   8.15267   0.04133   90.00000   0.00000   0.00101    72  181  182      3
   182   0.07600   0.00000   8.19400   0.04133   90.00000   0.00000   0.00101   181  182  183      3
   183   0.07600   0.00000   8.23533   0.04133   90.00000   0.00000   0.00101   182  183  109      3






 ***** DATA CARD NO.  1   GN   2     0     0     0  1.10000E+01  1.00000E-02  0.00000E+00  0.00000E+00  0.00000E+00  0.00000E+00
 ***** DATA CARD NO.  2   EK   0     0     0     0  0.00000E+00  0.00000E+00  0.00000E+00  0.00000E+00  0.00000E+00  0.00000E+00
 ***** DATA CARD NO.  3   LD   5     0     0     0  5.80000E+07  0.00000E+00  0.00000E+00  0.00000E+00  0.00000E+00  0.00000E+00
 ***** DATA CARD NO.  4   EX   0   999     1     0  1.00000E+00  0.00000E+00  0.00000E+00  0.00000E+00  0.00000E+00  0.00000E+00
 ***** DATA CARD NO.  5   FR   0     1     0     0  1.44200E+02  0.00000E+00  0.00000E+00  0.00000E+00  0.00000E+00  0.00000E+00
 ***** DATA CARD NO.  6   RP   0     1     1  1000  8.70000E+01  9.00000E+01  0.00000E+00  0.00000E+00  0.00000E+00  0.00000E+00




                                 - - - - - - FREQUENCY - - - - - -

                                    FREQUENCY= 1.4420E+02 MHZ
                                    WAVELENGTH= 2.0791E+00 METERS




                    APPROXIMATE INTEGRATION EMPLOYED FOR SEGMENTS MORE THAN   1.000 WAVELENGTHS APART

                    THE EXTENDED THIN WIRE KERNEL WILL BE USED



                               - - - STRUCTURE IMPEDANCE LOADING - - -


       LOCATION          RESISTANCE   INDUCTANCE  CAPACITANCE       IMPEDANCE (OHMS)     CONDUCTIVITY    TYPE
    ITAG FROM THRU          OHMS        HENRYS       FARADS        REAL      IMAGINARY    MHOS/METER

     ALL                                                                                 5.8000E+07     WIRE  



                                  - - - ANTENNA ENVIRONMENT - - -

                                        FINITE GROUND.  SOMMERFELD SOLUTION
                                        RELATIVE DIELECTRIC CONST.= 11.000
                                        CONDUCTIVITY= 1.000E-02 MHOS/METER
                                        COMPLEX DIELECTRIC CONSTANT= 1.10000E+01-1.24660E+00



                                - - - MATRIX TIMING - - -

                        FILL=    0.094 SEC.,  FACTOR=    0.016 SEC.



                                          - - - ANTENNA INPUT PARAMETERS - - -

   TAG   SEG.    VOLTAGE (VOLTS)         CURRENT (AMPS)         IMPEDANCE (OHMS)        ADMITTANCE (MHOS)      POWER
   NO.   NO.    REAL        IMAG.       REAL        IMAG.       REAL        IMAG.       REAL        IMAG.     (WATTS)
   999    73 1.00000E+00 0.00000E+00 2.66068E-02 3.63783E-03 3.68947E+01-5.04446E+00 2.66068E-02 3.63783E-03 1.33034E-02



                             - - - CURRENTS AND LOCATION - - -

                                 DISTANCES IN WAVELENGTHS


  SEG.  TAG    COORD. OF SEG. CENTER     SEG.            - - - CURRENT (AMPS) - - -
  NO.   NO.     X        Y        Z      LENGTH     REAL        IMAG.       MAG.        PHASE
     1    1   0.0361   0.0031   3.8484  0.00640  -2.4825E-03 -8.5229E-04  2.6247E-03 -161.051
     2    1   0.0349   0.0094   3.8493  0.00649  -6.0375E-03 -2.0709E-03  6.3828E-03 -161.068
     3    1   0.0327   0.0154   3.8503  0.00652  -9.2492E-03 -3.1694E-03  9.7771E-03 -161.085
     4    1   0.0296   0.0209   3.8510  0.00629  -1.2288E-02 -4.2066E-03  1.2988E-02 -161.102
     5    1   0.0257   0.0257   3.8517  0.00620  -1.5168E-02 -5.1881E-03  1.6030E-02 -161.117
     6    1   0.0209   0.0296   3.8527  0.00634  -1.8002E-02 -6.1527E-03  1.9025E-02 -161.131
     7    1   0.0154   0.0327   3.8537  0.00652  -2.0857E-02 -7.1232E-03  2.2040E-02 -161.144
     8    1   0.0094   0.0349   3.8546  0.00649  -2.3695E-02 -8.0870E-03  2.5037E-02 -161.155
     9    1   0.0031   0.0361   3.8556  0.00640  -2.6457E-02 -9.0247E-03  2.7953E-02 -161.165
    10    1  -0.0031   0.0361   3.8563  0.00634  -2.9142E-02 -9.9362E-03  3.0790E-02 -161.173
    11    1  -0.0094   0.0349   3.8570  0.00649  -3.1793E-02 -1.0836E-02  3.3589E-02 -161.180
    12    1  -0.0154   0.0327   3.8580  0.00652  -3.4434E-02 -1.1732E-02  3.6378E-02 -161.185
    13    1  -0.0209   0.0296   3.8590  0.00634  -3.6996E-02 -1.2602E-02  3.9084E-02 -161.189
    14    1  -0.0257   0.0257   3.8599  0.00620  -3.9445E-02 -1.3435E-02  4.1670E-02 -161.191
    15    1  -0.0296   0.0209   3.8609  0.00634  -4.1844E-02 -1.4252E-02  4.4205E-02 -161.192
    16    1  -0.0327   0.0154   3.8616  0.00647  -4.4239E-02 -1.5068E-02  4.6735E-02 -161.191
    17    1  -0.0349   0.0094   3.8623  0.00649  -4.6592E-02 -1.5872E-02  4.9221E-02 -161.189
    18    1  -0.0361   0.0031   3.8633  0.00640  -4.8870E-02 -1.6651E-02  5.1629E-02 -161.185
    19    1  -0.0361  -0.0031   3.8643  0.00640  -5.1070E-02 -1.7406E-02  5.3954E-02 -161.180
    20    1  -0.0349  -0.0094   3.8652  0.00649  -5.3217E-02 -1.8144E-02  5.6225E-02 -161.173
    21    1  -0.0327  -0.0154   3.8662  0.00652  -5.5314E-02 -1.8868E-02  5.8443E-02 -161.165
    22    1  -0.0296  -0.0209   3.8669  0.00629  -5.7304E-02 -1.9557E-02  6.0549E-02 -161.156
    23    1  -0.0257  -0.0257   3.8676  0.00620  -5.9160E-02 -2.0201E-02  6.2513E-02 -161.147
    24    1  -0.0209  -0.0296   3.8686  0.00634  -6.0947E-02 -2.0824E-02  6.4406E-02 -161.136
    25    1  -0.0154  -0.0327   3.8695  0.00652  -6.2697E-02 -2.1435E-02  6.6260E-02 -161.125
    26    1  -0.0094  -0.0349   3.8705  0.00649  -6.4377E-02 -2.2025E-02  6.8040E-02 -161.113
    27    1  -0.0031  -0.0361   3.8715  0.00640  -6.5945E-02 -2.2578E-02  6.9703E-02 -161.100
    28    1   0.0031  -0.0361   3.8722  0.00634  -6.7399E-02 -2.3093E-02  7.1245E-02 -161.087
    29    1   0.0094  -0.0349   3.8729  0.00649  -6.8745E-02 -2.3572E-02  7.2674E-02 -161.074
    30    1   0.0154  -0.0327   3.8739  0.00652  -6.9999E-02 -2.4021E-02  7.4006E-02 -161.060
    31    1   0.0209  -0.0296   3.8748  0.00634  -7.1121E-02 -2.4426E-02  7.5198E-02 -161.046
    32    1   0.0257  -0.0257   3.8758  0.00620  -7.2097E-02 -2.4782E-02  7.6238E-02 -161.030
    33    1   0.0296  -0.0209   3.8768  0.00634  -7.2952E-02 -2.5100E-02  7.7150E-02 -161.013
    34    1   0.0327  -0.0154   3.8775  0.00647  -7.3696E-02 -2.5387E-02  7.7946E-02 -160.992
    35    1   0.0349  -0.0094   3.8782  0.00649  -7.4311E-02 -2.5641E-02  7.8610E-02 -160.963
    36    1   0.0361  -0.0031   3.8792  0.00640  -7.4824E-02 -2.5875E-02  7.9172E-02 -160.924
    37    1   0.0361   0.0031   3.8801  0.00640  -7.5195E-02 -2.6021E-02  7.9571E-02 -160.912
    38    1   0.0349   0.0094   3.8811  0.00649  -7.5415E-02 -2.6032E-02  7.9782E-02 -160.956
    39    1   0.0327   0.0154   3.8820  0.00652  -7.5459E-02 -2.5985E-02  7.9807E-02 -160.998
    40    1   0.0296   0.0209   3.8830  0.00634  -7.5330E-02 -2.5888E-02  7.9654E-02 -161.034
    41    1   0.0257   0.0257   3.8837  0.00614  -7.5044E-02 -2.5743E-02  7.9337E-02 -161.066
    42    1   0.0209   0.0296   3.8845  0.00634  -7.4592E-02 -2.5544E-02  7.8845E-02 -161.096
    43    1   0.0154   0.0327   3.8854  0.00652  -7.3981E-02 -2.5291E-02  7.8184E-02 -161.127
    44    1   0.0094   0.0349   3.8864  0.00649  -7.3219E-02 -2.4986E-02  7.7365E-02 -161.158
    45    1   0.0031   0.0361   3.8873  0.00640  -7.2332E-02 -2.4640E-02  7.6414E-02 -161.189
    46    1  -0.0031   0.0361   3.8883  0.00640  -7.1328E-02 -2.4254E-02  7.5339E-02 -161.220
    47    1  -0.0094   0.0349   3.8890  0.00644  -7.0206E-02 -2.3828E-02  7.4140E-02 -161.253
    48    1  -0.0154   0.0327   3.8897  0.00652  -6.8945E-02 -2.3355E-02  7.2794E-02 -161.286
    49    1  -0.0209   0.0296   3.8907  0.00634  -6.7587E-02 -2.2851E-02  7.1346E-02 -161.320
    50    1  -0.0257   0.0257   3.8917  0.00620  -6.6167E-02 -2.2327E-02  6.9833E-02 -161.354
    51    1  -0.0296   0.0209   3.8926  0.00634  -6.4658E-02 -2.1773E-02  6.8225E-02 -161.389
    52    1  -0.0327   0.0154   3.8936  0.00652  -6.3021E-02 -2.1178E-02  6.6484E-02 -161.425
    53    1  -0.0349   0.0094   3.8943  0.00644  -6.1285E-02 -2.0550E-02  6.4639E-02 -161.463
    54    1  -0.0361   0.0031   3.8950  0.00640  -5.9472E-02 -1.9898E-02  6.2712E-02 -161.501
    55    1  -0.0361  -0.0031   3.8960  0.00640  -5.7584E-02 -1.9223E-02  6.0708E-02 -161.540
    56    1  -0.0349  -0.0094   3.8970  0.00649  -5.5610E-02 -1.8521E-02  5.8613E-02 -161.579
    57    1  -0.0327  -0.0154   3.8979  0.00652  -5.3543E-02 -1.7790E-02  5.6421E-02 -161.621
    58    1  -0.0296  -0.0209   3.8989  0.00634  -5.1432E-02 -1.7046E-02  5.4183E-02 -161.663
    59    1  -0.0257  -0.0257   3.8996  0.00614  -4.9321E-02 -1.6306E-02  5.1947E-02 -161.706
    60    1  -0.0209  -0.0296   3.9003  0.00634  -4.7143E-02 -1.5545E-02  4.9640E-02 -161.750
    61    1  -0.0154  -0.0327   3.9013  0.00652  -4.4843E-02 -1.4745E-02  4.7205E-02 -161.799
    62    1  -0.0094  -0.0349   3.9023  0.00649  -4.2462E-02 -1.3919E-02  4.4685E-02 -161.851
    63    1  -0.0031  -0.0361   3.9032  0.00640  -4.0055E-02 -1.3086E-02  4.2139E-02 -161.908
    64    1   0.0031  -0.0361   3.9042  0.00640  -3.7618E-02 -1.2246E-02  3.9561E-02 -161.969
    65    1   0.0094  -0.0349   3.9049  0.00644  -3.5134E-02 -1.1390E-02  3.6934E-02 -162.038
    66    1   0.0154  -0.0327   3.9056  0.00652  -3.2573E-02 -1.0510E-02  3.4227E-02 -162.117
    67    1   0.0209  -0.0296   3.9066  0.00634  -2.9995E-02 -9.6255E-03  3.1501E-02 -162.208
    68    1   0.0257  -0.0257   3.9075  0.00620  -2.7451E-02 -8.7532E-03  2.8812E-02 -162.314
    69    1   0.0296  -0.0209   3.9085  0.00634  -2.4882E-02 -7.8730E-03  2.6098E-02 -162.442
    70    1   0.0327  -0.0154   3.9095  0.00652  -2.2230E-02 -6.9640E-03  2.3295E-02 -162.606
    71    1   0.0349  -0.0094   3.9102  0.00644  -1.9545E-02 -6.0437E-03  2.0458E-02 -162.818
    72    1   0.0361  -0.0031   3.9109  0.00640  -1.6859E-02 -5.1219E-03  1.7620E-02 -163.100
    73  999   0.0342   0.0017   3.8787  0.00337   2.6607E-02  3.6378E-03  2.6854E-02    7.786
    74    4   0.0337   0.0051   3.8787  0.00350   2.6674E-02  3.5795E-03  2.6913E-02    7.643
    75    4   0.0325   0.0082   3.8787  0.00323   2.6738E-02  3.5276E-03  2.6970E-02    7.516
    76    4   0.0308   0.0111   3.8787  0.00347   2.6801E-02  3.4897E-03  2.7028E-02    7.419
    77    4   0.0286   0.0137   3.8787  0.00340   2.6870E-02  3.4607E-03  2.7092E-02    7.339
    78    4   0.0260   0.0159   3.8787  0.00347   2.6944E-02  3.4405E-03  2.7163E-02    7.277
    79    4   0.0231   0.0176   3.8787  0.00323   2.7023E-02  3.4284E-03  2.7240E-02    7.230
    80    4   0.0200   0.0188   3.8787  0.00350   2.7108E-02  3.4228E-03  2.7323E-02    7.197
    81    4   0.0166   0.0195   3.8787  0.00340   2.7199E-02  3.4229E-03  2.7413E-02    7.173
    82    4   0.0132   0.0195   3.8787  0.00340   2.7291E-02  3.4277E-03  2.7506E-02    7.159
    83    4   0.0099   0.0188   3.8787  0.00350   2.7383E-02  3.4357E-03  2.7598E-02    7.151
    84    4   0.0065   0.0176   3.8787  0.00366   2.7473E-02  3.4457E-03  2.7688E-02    7.149
    85    4   0.0034   0.0159   3.8787  0.00347   2.7554E-02  3.4560E-03  2.7770E-02    7.149
    86    4   0.0007   0.0137   3.8787  0.00340   2.7620E-02  3.4648E-03  2.7836E-02    7.150
    87    4  -0.0014   0.0111   3.8787  0.00347   2.7670E-02  3.4711E-03  2.7887E-02    7.150
    88    4  -0.0031   0.0082   3.8787  0.00323   2.7701E-02  3.4739E-03  2.7918E-02    7.148
    89    4  -0.0043   0.0051   3.8787  0.00350   2.7714E-02  3.4728E-03  2.7930E-02    7.142
    90    4  -0.0048   0.0017   3.8787  0.00337   2.7706E-02  3.4671E-03  2.7922E-02    7.133
    91    4  -0.0048  -0.0017   3.8787  0.00337   2.7677E-02  3.4567E-03  2.7892E-02    7.119
    92    4  -0.0043  -0.0051   3.8787  0.00350   2.7627E-02  3.4415E-03  2.7841E-02    7.101
    93    4  -0.0031  -0.0082   3.8787  0.00323   2.7559E-02  3.4224E-03  2.7771E-02    7.079
    94    4  -0.0014  -0.0111   3.8787  0.00347   2.7474E-02  3.4000E-03  2.7684E-02    7.055
    95    4   0.0007  -0.0137   3.8787  0.00340   2.7372E-02  3.3743E-03  2.7580E-02    7.028
    96    4   0.0034  -0.0159   3.8787  0.00347   2.7259E-02  3.3470E-03  2.7463E-02    7.000
    97    4   0.0065  -0.0176   3.8787  0.00366   2.7132E-02  3.3185E-03  2.7334E-02    6.973
    98    4   0.0099  -0.0188   3.8787  0.00350   2.7000E-02  3.2915E-03  2.7200E-02    6.950
    99    4   0.0132  -0.0195   3.8787  0.00340   2.6875E-02  3.2687E-03  2.7073E-02    6.935
   100    4   0.0166  -0.0195   3.8787  0.00340   2.6758E-02  3.2517E-03  2.6955E-02    6.929
   101    4   0.0200  -0.0188   3.8787  0.00350   2.6649E-02  3.2412E-03  2.6846E-02    6.935
   102    4   0.0231  -0.0176   3.8787  0.00323   2.6558E-02  3.2396E-03  2.6755E-02    6.955
   103    4   0.0260  -0.0159   3.8787  0.00347   2.6486E-02  3.2486E-03  2.6685E-02    6.992
   104    4   0.0286  -0.0137   3.8787  0.00340   2.6439E-02  3.2718E-03  2.6640E-02    7.055
   105    4   0.0308  -0.0111   3.8787  0.00347   2.6419E-02  3.3106E-03  2.6625E-02    7.143
   106    4   0.0325  -0.0082   3.8787  0.00323   2.6428E-02  3.3657E-03  2.6641E-02    7.258
   107    4   0.0337  -0.0051   3.8787  0.00350   2.6476E-02  3.4445E-03  2.6699E-02    7.412
   108    4   0.0342  -0.0017   3.8787  0.00337   2.6548E-02  3.5437E-03  2.6784E-02    7.603
   109    2   0.0361  -0.0031   3.9715  0.00640   1.0895E-02  4.3831E-03  1.1744E-02   21.915
   110    2   0.0349  -0.0094   3.9725  0.00649   1.3609E-02  5.3084E-03  1.4608E-02   21.309
   111    2   0.0327  -0.0154   3.9734  0.00652   1.6345E-02  6.2387E-03  1.7495E-02   20.892
   112    2   0.0296  -0.0209   3.9744  0.00634   1.9039E-02  7.1530E-03  2.0338E-02   20.592
   113    2   0.0257  -0.0257   3.9754  0.00620   2.1652E-02  8.0382E-03  2.3096E-02   20.367
   114    2   0.0209  -0.0296   3.9761  0.00629   2.4234E-02  8.9116E-03  2.5821E-02   20.190
   115    2   0.0154  -0.0327   3.9768  0.00652   2.6848E-02  9.7944E-03  2.8578E-02   20.043
   116    2   0.0094  -0.0349   3.9778  0.00649   2.9474E-02  1.0681E-02  3.1350E-02   19.919
   117    2   0.0031  -0.0361   3.9787  0.00640   3.2042E-02  1.1547E-02  3.4059E-02   19.817
   118    2  -0.0031  -0.0361   3.9797  0.00640   3.4559E-02  1.2395E-02  3.6714E-02   19.731
   119    2  -0.0094  -0.0349   3.9807  0.00649   3.7053E-02  1.3236E-02  3.9346E-02   19.658
   120    2  -0.0154  -0.0327   3.9814  0.00647   3.9518E-02  1.4067E-02  4.1947E-02   19.595
   121    2  -0.0209  -0.0296   3.9821  0.00634   4.1898E-02  1.4870E-02  4.4458E-02   19.541
   122    2  -0.0257  -0.0257   3.9831  0.00620   4.4181E-02  1.5641E-02  4.6868E-02   19.495
   123    2  -0.0296  -0.0209   3.9840  0.00634   4.6415E-02  1.6397E-02  4.9226E-02   19.456
   124    2  -0.0327  -0.0154   3.9850  0.00652   4.8649E-02  1.7153E-02  5.1584E-02   19.422
   125    2  -0.0349  -0.0094   3.9859  0.00649   5.0846E-02  1.7897E-02  5.3904E-02   19.392
   126    2  -0.0361  -0.0031   3.9867  0.00634   5.2945E-02  1.8610E-02  5.6121E-02   19.366
   127    2  -0.0361   0.0031   3.9874  0.00640   5.4952E-02  1.9292E-02  5.8240E-02   19.345
   128    2  -0.0349   0.0094   3.9883  0.00649   5.6907E-02  1.9958E-02  6.0305E-02   19.326
   129    2  -0.0327   0.0154   3.9893  0.00652   5.8805E-02  2.0605E-02  6.2310E-02   19.310
   130    2  -0.0296   0.0209   3.9903  0.00634   6.0598E-02  2.1218E-02  6.4205E-02   19.297
   131    2  -0.0257   0.0257   3.9912  0.00620   6.2265E-02  2.1787E-02  6.5967E-02   19.286
   132    2  -0.0209   0.0296   3.9922  0.00634   6.3848E-02  2.2329E-02  6.7639E-02   19.276
   133    2  -0.0154   0.0327   3.9929  0.00647   6.5369E-02  2.2849E-02  6.9247E-02   19.267
   134    2  -0.0094   0.0349   3.9936  0.00649   6.6792E-02  2.3336E-02  7.0751E-02   19.258
   135    2  -0.0031   0.0361   3.9946  0.00640   6.8099E-02  2.3782E-02  7.2132E-02   19.251
   136    2   0.0031   0.0361   3.9956  0.00640   6.9287E-02  2.4188E-02  7.3387E-02   19.244
   137    2   0.0094   0.0349   3.9965  0.00649   7.0363E-02  2.4554E-02  7.4524E-02   19.237
   138    2   0.0154   0.0327   3.9975  0.00652   7.1322E-02  2.4879E-02  7.5537E-02   19.230
   139    2   0.0209   0.0296   3.9982  0.00629   7.2130E-02  2.5150E-02  7.6389E-02   19.223
   140    2   0.0257   0.0257   3.9989  0.00620   7.2764E-02  2.5361E-02  7.7057E-02   19.215
   141    2   0.0296   0.0209   3.9999  0.00634   7.3255E-02  2.5521E-02  7.7573E-02   19.208
   142    2   0.0327   0.0154   4.0009  0.00652   7.3598E-02  2.5629E-02  7.7932E-02   19.200
   143    2   0.0349   0.0094   4.0018  0.00649   7.3769E-02  2.5676E-02  7.8109E-02   19.191
   144    2   0.0361   0.0031   4.0028  0.00640   7.3759E-02  2.5659E-02  7.8095E-02   19.181
   145    2   0.0361  -0.0031   4.0035  0.00634   7.3573E-02  2.5580E-02  7.7893E-02   19.172
   146    2   0.0349  -0.0094   4.0042  0.00649   7.3191E-02  2.5432E-02  7.7484E-02   19.161
   147    2   0.0327  -0.0154   4.0052  0.00652   7.2634E-02  2.5222E-02  7.6888E-02   19.150
   148    2   0.0296  -0.0209   4.0061  0.00634   7.1926E-02  2.4960E-02  7.6134E-02   19.138
   149    2   0.0257  -0.0257   4.0071  0.00620   7.1099E-02  2.4656E-02  7.5253E-02   19.126
   150    2   0.0209  -0.0296   4.0081  0.00634   7.0147E-02  2.4309E-02  7.4240E-02   19.113
   151    2   0.0154  -0.0327   4.0088  0.00647   6.9055E-02  2.3913E-02  7.3078E-02   19.100
   152    2   0.0094  -0.0349   4.0095  0.00649   6.7819E-02  2.3467E-02  7.1764E-02   19.087
   153    2   0.0031  -0.0361   4.0105  0.00640   6.6481E-02  2.2986E-02  7.0342E-02   19.073
   154    2  -0.0031  -0.0361   4.0114  0.00640   6.5052E-02  2.2475E-02  6.8825E-02   19.059
   155    2  -0.0094  -0.0349   4.0124  0.00649   6.3518E-02  2.1928E-02  6.7196E-02   19.046
   156    2  -0.0154  -0.0327   4.0134  0.00652   6.1875E-02  2.1344E-02  6.5453E-02   19.032
   157    2  -0.0209  -0.0296   4.0141  0.00629   6.0169E-02  2.0741E-02  6.3644E-02   19.020
   158    2  -0.0257  -0.0257   4.0148  0.00620   5.8415E-02  2.0123E-02  6.1784E-02   19.008
   159    2  -0.0296  -0.0209   4.0158  0.00634   5.6576E-02  1.9478E-02  5.9835E-02   18.997
   160    2  -0.0327  -0.0154   4.0167  0.00652   5.4615E-02  1.8792E-02  5.7758E-02   18.987
   161    2  -0.0349  -0.0094   4.0177  0.00649   5.2557E-02  1.8075E-02  5.5578E-02   18.978
   162    2  -0.0361  -0.0031   4.0186  0.00640   5.0449E-02  1.7342E-02  5.3347E-02   18.971
   163    2  -0.0361   0.0031   4.0194  0.00634   4.8299E-02  1.6597E-02  5.1071E-02   18.964
   164    2  -0.0349   0.0094   4.0201  0.00649   4.6059E-02  1.5823E-02  4.8701E-02   18.959
   165    2  -0.0327   0.0154   4.0211  0.00652   4.3724E-02  1.5018E-02  4.6231E-02   18.956
   166    2  -0.0296   0.0209   4.0220  0.00634   4.1356E-02  1.4203E-02  4.3727E-02   18.954
   167    2  -0.0257   0.0257   4.0230  0.00620   3.8993E-02  1.3391E-02  4.1228E-02   18.954
   168    2  -0.0209   0.0296   4.0239  0.00634   3.6580E-02  1.2563E-02  3.8677E-02   18.955
   169    2  -0.0154   0.0327   4.0249  0.00652   3.4055E-02  1.1698E-02  3.6008E-02   18.958
   170    2  -0.0094   0.0349   4.0256  0.00644   3.1462E-02  1.0810E-02  3.3267E-02   18.962
   171    2  -0.0031   0.0361   4.0263  0.00640   2.8840E-02  9.9120E-03  3.0495E-02   18.968
   172    2   0.0031   0.0361   4.0273  0.00640   2.6177E-02  9.0003E-03  2.7681E-02   18.974
   173    2   0.0094   0.0349   4.0283  0.00649   2.3450E-02  8.0664E-03  2.4799E-02   18.982
   174    2   0.0154   0.0327   4.0292  0.00652   2.0648E-02  7.1061E-03  2.1837E-02   18.991
   175    2   0.0209   0.0296   4.0302  0.00634   1.7828E-02  6.1388E-03  1.8855E-02   19.000
   176    2   0.0257   0.0257   4.0309  0.00614   1.5040E-02  5.1815E-03  1.5907E-02   19.010
   177    2   0.0296   0.0209   4.0316  0.00634   1.2187E-02  4.2011E-03  1.2891E-02   19.020
   178    2   0.0327   0.0154   4.0326  0.00652   9.1663E-03  3.1617E-03  9.6962E-03   19.031
   179    2   0.0349   0.0094   4.0336  0.00649   5.9853E-03  2.0657E-03  6.3317E-03   19.041
   180    2   0.0361   0.0031   4.0345  0.00640   2.4616E-03  8.5011E-04  2.6043E-03   19.052
   181    3   0.0366   0.0000   3.9213  0.01988  -1.1329E-02 -3.2232E-03  1.1778E-02 -164.118
   182    3   0.0366   0.0000   3.9412  0.01988  -2.9977E-03 -3.6794E-04  3.0202E-03 -173.003
   183    3   0.0366   0.0000   3.9611  0.01988   5.3474E-03  2.4869E-03  5.8974E-03   24.941



                                        - - - POWER BUDGET - - -

                                           INPUT POWER   = 1.3303E-02 WATTS
                                           RADIATED POWER= 1.1748E-02 WATTS
                                           STRUCTURE LOSS= 1.5556E-03 WATTS
                                           NETWORK LOSS  = 0.0000E+00 WATTS
                                           EFFICIENCY    =  88.31 PERCENT



                                                - - - RADIATION PATTERNS - - -

  - - ANGLES - -           - POWER GAINS -       - - - POLARIZATION - - -    - - - E(THETA) - - -    - - - E(PHI) - - -
  THETA     PHI        VERT.   HOR.    TOTAL      AXIAL     TILT   SENSE     MAGNITUDE    PHASE      MAGNITUDE    PHASE 
 DEGREES  DEGREES       DB      DB      DB        RATIO     DEG.              VOLTS/M    DEGREES      VOLTS/M    DEGREES
   87.00    90.00     -18.84    6.46    6.47    0.04486    88.25  RIGHT     1.02015E-01    -7.39    1.87818E+00   -63.15






 ***** DATA CARD NO.  7   EN   0     1     1  1000  8.70000E+01  9.00000E+01  0.00000E+00  0.00000E+00  0.00000E+00  0.00000E+00

 RUN TIME =     0.188
