1



                                 *********************************************

                                    NUMERICAL ELECTROMAGNETICS CODE (NEC-2D)

                                 *********************************************




                                     - - - - COMMENTS - - - -


                          No comments specified                                                      
                                                                                                     




                                 - - - STRUCTURE SPECIFICATION - - -

                                     COORDINATES MUST BE INPUT IN
                                     METERS OR BE SCALED TO METERS
                                     BEFORE STRUCTURE INPUT IS ENDED


  WIRE                                                                               NO. OF    FIRST  LAST     TAG
  NO.        X1         Y1         Z1          X2         Y2         Z2      RADIUS   SEG.     SEG.   SEG.     NO.
     1   -1.00000    0.00000    0.48000    -1.00000    0.00000    0.94800    0.00500      9        1     9       1
     2   -1.00000    0.00000    0.94800    -1.00000    0.00000    1.00000    0.00500      1       10    10     999
     3   -1.00000    0.00000    1.00000    -1.00000    0.00000    1.52000    0.00500      9       11    19       1
      THE STRUCTURE HAS BEEN MOVED, MOVE DATA CARD IS -
        0    0   0.00000   0.00000   0.00000   0.00000   0.00000   0.00000   0.00000

   TOTAL SEGMENTS USED=   19     NO. SEG. IN A SYMMETRIC CELL=   19     SYMMETRY FLAG=  0


         - MULTIPLE WIRE JUNCTIONS -
 JUNCTION    SEGMENTS  (- FOR END 1, + FOR END 2)
  NONE




                                 - - - - SEGMENTATION DATA - - - -

                                        COORDINATES IN METERS

                         I+ AND I- INDICATE THE SEGMENTS BEFORE AND AFTER I


  SEG.   COORDINATES OF SEG. CENTER     SEG.     ORIENTATION ANGLES    WIRE    CONNECTION DATA   TAG
  NO.       X         Y         Z       LENGTH     ALPHA     BETA      RADIUS    I-   I    I+    NO.
     1  -1.00000   0.00000   0.50600   0.05200   90.00000   0.00000   0.00500     0    1    2      1
     2  -1.00000   0.00000   0.55800   0.05200   90.00000   0.00000   0.00500     1    2    3      1
     3  -1.00000   0.00000   0.61000   0.05200   90.00000   0.00000   0.00500     2    3    4      1
     4  -1.00000   0.00000   0.66200   0.05200   90.00000   0.00000   0.00500     3    4    5      1
     5  -1.00000   0.00000   0.71400   0.05200   90.00000   0.00000   0.00500     4    5    6      1
     6  -1.00000   0.00000   0.76600   0.05200   90.00000   0.00000   0.00500     5    6    7      1
     7  -1.00000   0.00000   0.81800   0.05200   90.00000   0.00000   0.00500     6    7    8      1
     8  -1.00000   0.00000   0.87000   0.05200   90.00000   0.00000   0.00500     7    8    9      1
     9  -1.00000   0.00000   0.92200   0.05200   90.00000   0.00000   0.00500     8    9   10      1
    10  -1.00000   0.00000   0.97400   0.05200   90.00000   0.00000   0.00500     9   10   11    999
    11  -1.00000   0.00000   1.02889   0.05778   90.00000   0.00000   0.00500    10   11   12      1
    12  -1.00000   0.00000   1.08667   0.05778   90.00000   0.00000   0.00500    11   12   13      1
    13  -1.00000   0.00000   1.14444   0.05778   90.00000   0.00000   0.00500    12   13   14      1
    14  -1.00000   0.00000   1.20222   0.05778   90.00000   0.00000   0.00500    13   14   15      1
    15  -1.00000   0.00000   1.26000   0.05778   90.00000   0.00000   0.00500    14   15   16      1
    16  -1.00000   0.00000   1.31778   0.05778   90.00000   0.00000   0.00500    15   16   17      1
    17  -1.00000   0.00000   1.37556   0.05778   90.00000   0.00000   0.00500    16   17   18      1
    18  -1.00000   0.00000   1.43333   0.05778   90.00000   0.00000   0.00500    17   18   19      1
    19  -1.00000   0.00000   1.49111   0.05778   90.00000   0.00000   0.00500    18   19    0      1






 ***** DATA CARD NO.  1   EK   0     0     0     0  0.00000E+00  0.00000E+00  0.00000E+00  0.00000E+00  0.00000E+00  0.00000E+00
 ***** DATA CARD NO.  2   EX   0   999     1     0  1.00000E+00  0.00000E+00  0.00000E+00  0.00000E+00  0.00000E+00  0.00000E+00
 ***** DATA CARD NO.  3   FR   0     1     0     0  1.44200E+02  0.00000E+00  0.00000E+00  0.00000E+00  0.00000E+00  0.00000E+00
 ***** DATA CARD NO.  4   RP   0     1   360  1000  8.70000E+01  0.00000E+00  0.00000E+00  1.00000E+00  0.00000E+00  0.00000E+00




                                 - - - - - - FREQUENCY - - - - - -

                                    FREQUENCY= 1.4420E+02 MHZ
                                    WAVELENGTH= 2.0791E+00 METERS




                    APPROXIMATE INTEGRATION EMPLOYED FOR SEGMENTS MORE THAN   1.000 WAVELENGTHS APART

                    THE EXTENDED THIN WIRE KERNEL WILL BE USED



                               - - - STRUCTURE IMPEDANCE LOADING - - -

                                   THIS STRUCTURE IS NOT LOADED



                                  - - - ANTENNA ENVIRONMENT - - -

                                            FREE SPACE



                                - - - MATRIX TIMING - - -

                        FILL=    0.000 SEC.,  FACTOR=    0.000 SEC.



                                          - - - ANTENNA INPUT PARAMETERS - - -

   TAG   SEG.    VOLTAGE (VOLTS)         CURRENT (AMPS)         IMPEDANCE (OHMS)        ADMITTANCE (MHOS)      POWER
   NO.   NO.    REAL        IMAG.       REAL        IMAG.       REAL        IMAG.       REAL        IMAG.     (WATTS)
   999    10 1.00000E+00 0.00000E+00 8.54704E-03-4.74731E-03 8.94146E+01 4.96639E+01 8.54704E-03-4.74731E-03 4.27352E-03



                             - - - CURRENTS AND LOCATION - - -

                                 DISTANCES IN WAVELENGTHS


  SEG.  TAG    COORD. OF SEG. CENTER     SEG.            - - - CURRENT (AMPS) - - -
  NO.   NO.     X        Y        Z      LENGTH     REAL        IMAG.       MAG.        PHASE
     1    1  -0.4810   0.0000   0.2434  0.02501   1.0672E-03 -8.5450E-04  1.3671E-03  -38.685
     2    1  -0.4810   0.0000   0.2684  0.02501   2.5147E-03 -1.9694E-03  3.1941E-03  -38.067
     3    1  -0.4810   0.0000   0.2934  0.02501   3.7597E-03 -2.8742E-03  4.7325E-03  -37.398
     4    1  -0.4810   0.0000   0.3184  0.02501   4.8843E-03 -3.6376E-03  6.0900E-03  -36.678
     5    1  -0.4810   0.0000   0.3434  0.02501   5.8829E-03 -4.2562E-03  7.2611E-03  -35.885
     6    1  -0.4810   0.0000   0.3684  0.02501   6.7431E-03 -4.7205E-03  8.2312E-03  -34.994
     7    1  -0.4810   0.0000   0.3934  0.02501   7.4510E-03 -5.0186E-03  8.9836E-03  -33.962
     8    1  -0.4810   0.0000   0.4185  0.02501   7.9939E-03 -5.1359E-03  9.5016E-03  -32.720
     9    1  -0.4810   0.0000   0.4435  0.02501   8.3617E-03 -5.0312E-03  9.7586E-03  -31.035
    10  999  -0.4810   0.0000   0.4685  0.02501   8.5470E-03 -4.7473E-03  9.7770E-03  -29.049
    11    1  -0.4810   0.0000   0.4949  0.02779   8.5409E-03 -5.2091E-03  1.0004E-02  -31.379
    12    1  -0.4810   0.0000   0.5227  0.02779   8.3109E-03 -5.4714E-03  9.9502E-03  -33.358
    13    1  -0.4810   0.0000   0.5505  0.02779   7.8572E-03 -5.4600E-03  9.5680E-03  -34.796
    14    1  -0.4810   0.0000   0.5783  0.02779   7.1905E-03 -5.2182E-03  8.8844E-03  -35.969
    15    1  -0.4810   0.0000   0.6060  0.02779   6.3262E-03 -4.7615E-03  7.9179E-03  -36.968
    16    1  -0.4810   0.0000   0.6338  0.02779   5.2827E-03 -4.1043E-03  6.6897E-03  -37.844
    17    1  -0.4810   0.0000   0.6616  0.02779   4.0785E-03 -3.2597E-03  5.2211E-03  -38.634
    18    1  -0.4810   0.0000   0.6894  0.02779   2.7259E-03 -2.2359E-03  3.5256E-03  -39.361
    19    1  -0.4810   0.0000   0.7172  0.02779   1.1451E-03 -9.6185E-04  1.4955E-03  -40.029



                                        - - - POWER BUDGET - - -

                                           INPUT POWER   = 4.2735E-03 WATTS
                                           RADIATED POWER= 4.2735E-03 WATTS
                                           STRUCTURE LOSS= 0.0000E+00 WATTS
                                           NETWORK LOSS  = 0.0000E+00 WATTS
                                           EFFICIENCY    = 100.00 PERCENT



                                                - - - RADIATION PATTERNS - - -

  - - ANGLES - -           - POWER GAINS -       - - - POLARIZATION - - -    - - - E(THETA) - - -    - - - E(PHI) - - -
  THETA     PHI        VERT.   HOR.    TOTAL      AXIAL     TILT   SENSE     MAGNITUDE    PHASE      MAGNITUDE    PHASE 
 DEGREES  DEGREES       DB      DB      DB        RATIO     DEG.              VOLTS/M    DEGREES      VOLTS/M    DEGREES
   87.00     0.00       2.21 -999.99    2.21    0.00000     0.00  LINEAR    6.52653E-01  -108.46    0.00000E+00     0.00
   87.00     1.00       2.21 -999.99    2.21    0.00000     0.00  LINEAR    6.52653E-01  -108.43    0.00000E+00     0.00
   87.00     2.00       2.21 -999.99    2.21    0.00000     0.00  LINEAR    6.52653E-01  -108.35    0.00000E+00     0.00
   87.00     3.00       2.21 -999.99    2.21    0.00000     0.00  LINEAR    6.52653E-01  -108.22    0.00000E+00     0.00
   87.00     4.00       2.21 -999.99    2.21    0.00000     0.00  LINEAR    6.52653E-01  -108.04    0.00000E+00     0.00
   87.00     5.00       2.21 -999.99    2.21    0.00000     0.00  LINEAR    6.52653E-01  -107.80    0.00000E+00     0.00
   87.00     6.00       2.21 -999.99    2.21    0.00000     0.00  LINEAR    6.52653E-01  -107.51    0.00000E+00     0.00
   87.00     7.00       2.21 -999.99    2.21    0.00000     0.00  LINEAR    6.52653E-01  -107.17    0.00000E+00     0.00
   87.00     8.00       2.21 -999.99    2.21    0.00000     0.00  LINEAR    6.52653E-01  -106.78    0.00000E+00     0.00
   87.00     9.00       2.21 -999.99    2.21    0.00000     0.00  LINEAR    6.52653E-01  -106.33    0.00000E+00     0.00
   87.00    10.00       2.21 -999.99    2.21    0.00000     0.00  LINEAR    6.52653E-01  -105.83    0.00000E+00     0.00
   87.00    11.00       2.21 -999.99    2.21    0.00000     0.00  LINEAR    6.52653E-01  -105.28    0.00000E+00     0.00
   87.00    12.00       2.21 -999.99    2.21    0.00000     0.00  LINEAR    6.52653E-01  -104.68    0.00000E+00     0.00
   87.00    13.00       2.21 -999.99    2.21    0.00000     0.00  LINEAR    6.52653E-01  -104.03    0.00000E+00     0.00
   87.00    14.00       2.21 -999.99    2.21    0.00000     0.00  LINEAR    6.52653E-01  -103.32    0.00000E+00     0.00
   87.00    15.00       2.21 -999.99    2.21    0.00000     0.00  LINEAR    6.52653E-01  -102.57    0.00000E+00     0.00
   87.00    16.00       2.21 -999.99    2.21    0.00000     0.00  LINEAR    6.52653E-01  -101.76    0.00000E+00     0.00
   87.00    17.00       2.21 -999.99    2.21    0.00000     0.00  LINEAR    6.52653E-01  -100.90    0.00000E+00     0.00
   87.00    18.00       2.21 -999.99    2.21    0.00000     0.00  LINEAR    6.52653E-01  -100.00    0.00000E+00     0.00
   87.00    19.00       2.21 -999.99    2.21    0.00000     0.00  LINEAR    6.52653E-01   -99.04    0.00000E+00     0.00
   87.00    20.00       2.21 -999.99    2.21    0.00000     0.00  LINEAR    6.52653E-01   -98.03    0.00000E+00     0.00
   87.00    21.00       2.21 -999.99    2.21    0.00000     0.00  LINEAR    6.52653E-01   -96.97    0.00000E+00     0.00
   87.00    22.00       2.21 -999.99    2.21    0.00000     0.00  LINEAR    6.52653E-01   -95.87    0.00000E+00     0.00
   87.00    23.00       2.21 -999.99    2.21    0.00000     0.00  LINEAR    6.52653E-01   -94.71    0.00000E+00     0.00
   87.00    24.00       2.21 -999.99    2.21    0.00000     0.00  LINEAR    6.52653E-01   -93.51    0.00000E+00     0.00
   87.00    25.00       2.21 -999.99    2.21    0.00000     0.00  LINEAR    6.52653E-01   -92.26    0.00000E+00     0.00
   87.00    26.00       2.21 -999.99    2.21    0.00000     0.00  LINEAR    6.52653E-01   -90.96    0.00000E+00     0.00
   87.00    27.00       2.21 -999.99    2.21    0.00000     0.00  LINEAR    6.52653E-01   -89.61    0.00000E+00     0.00
   87.00    28.00       2.21 -999.99    2.21    0.00000     0.00  LINEAR    6.52653E-01   -88.22    0.00000E+00     0.00
   87.00    29.00       2.21 -999.99    2.21    0.00000     0.00  LINEAR    6.52653E-01   -86.78    0.00000E+00     0.00
   87.00    30.00       2.21 -999.99    2.21    0.00000     0.00  LINEAR    6.52653E-01   -85.29    0.00000E+00     0.00
   87.00    31.00       2.21 -999.99    2.21    0.00000     0.00  LINEAR    6.52653E-01   -83.76    0.00000E+00     0.00
   87.00    32.00       2.21 -999.99    2.21    0.00000     0.00  LINEAR    6.52653E-01   -82.18    0.00000E+00     0.00
   87.00    33.00       2.21 -999.99    2.21    0.00000     0.00  LINEAR    6.52653E-01   -80.56    0.00000E+00     0.00
   87.00    34.00       2.21 -999.99    2.21    0.00000     0.00  LINEAR    6.52653E-01   -78.90    0.00000E+00     0.00
   87.00    35.00       2.21 -999.99    2.21    0.00000     0.00  LINEAR    6.52653E-01   -77.19    0.00000E+00     0.00
   87.00    36.00       2.21 -999.99    2.21    0.00000     0.00  LINEAR    6.52653E-01   -75.44    0.00000E+00     0.00
   87.00    37.00       2.21 -999.99    2.21    0.00000     0.00  LINEAR    6.52653E-01   -73.64    0.00000E+00     0.00
   87.00    38.00       2.21 -999.99    2.21    0.00000     0.00  LINEAR    6.52653E-01   -71.80    0.00000E+00     0.00
   87.00    39.00       2.21 -999.99    2.21    0.00000     0.00  LINEAR    6.52653E-01   -69.92    0.00000E+00     0.00
   87.00    40.00       2.21 -999.99    2.21    0.00000     0.00  LINEAR    6.52653E-01   -68.00    0.00000E+00     0.00
   87.00    41.00       2.21 -999.99    2.21    0.00000     0.00  LINEAR    6.52653E-01   -66.04    0.00000E+00     0.00
   87.00    42.00       2.21 -999.99    2.21    0.00000     0.00  LINEAR    6.52653E-01   -64.04    0.00000E+00     0.00
   87.00    43.00       2.21 -999.99    2.21    0.00000     0.00  LINEAR    6.52653E-01   -62.01    0.00000E+00     0.00
   87.00    44.00       2.21 -999.99    2.21    0.00000     0.00  LINEAR    6.52653E-01   -59.93    0.00000E+00     0.00
   87.00    45.00       2.21 -999.99    2.21    0.00000     0.00  LINEAR    6.52653E-01   -57.81    0.00000E+00     0.00
   87.00    46.00       2.21 -999.99    2.21    0.00000     0.00  LINEAR    6.52653E-01   -55.66    0.00000E+00     0.00
   87.00    47.00       2.21 -999.99    2.21    0.00000     0.00  LINEAR    6.52653E-01   -53.47    0.00000E+00     0.00
   87.00    48.00       2.21 -999.99    2.21    0.00000     0.00  LINEAR    6.52653E-01   -51.25    0.00000E+00     0.00
   87.00    49.00       2.21 -999.99    2.21    0.00000     0.00  LINEAR    6.52653E-01   -48.99    0.00000E+00     0.00
   87.00    50.00       2.21 -999.99    2.21    0.00000     0.00  LINEAR    6.52653E-01   -46.69    0.00000E+00     0.00
   87.00    51.00       2.21 -999.99    2.21    0.00000     0.00  LINEAR    6.52653E-01   -44.36    0.00000E+00     0.00
   87.00    52.00       2.21 -999.99    2.21    0.00000     0.00  LINEAR    6.52653E-01   -42.00    0.00000E+00     0.00
   87.00    53.00       2.21 -999.99    2.21    0.00000     0.00  LINEAR    6.52653E-01   -39.61    0.00000E+00     0.00
   87.00    54.00       2.21 -999.99    2.21    0.00000     0.00  LINEAR    6.52653E-01   -37.18    0.00000E+00     0.00
   87.00    55.00       2.21 -999.99    2.21    0.00000     0.00  LINEAR    6.52653E-01   -34.72    0.00000E+00     0.00
   87.00    56.00       2.21 -999.99    2.21    0.00000     0.00  LINEAR    6.52653E-01   -32.24    0.00000E+00     0.00
   87.00    57.00       2.21 -999.99    2.21    0.00000     0.00  LINEAR    6.52653E-01   -29.72    0.00000E+00     0.00
   87.00    58.00       2.21 -999.99    2.21    0.00000     0.00  LINEAR    6.52653E-01   -27.17    0.00000E+00     0.00
   87.00    59.00       2.21 -999.99    2.21    0.00000     0.00  LINEAR    6.52653E-01   -24.60    0.00000E+00     0.00
   87.00    60.00       2.21 -999.99    2.21    0.00000     0.00  LINEAR    6.52653E-01   -22.00    0.00000E+00     0.00
   87.00    61.00       2.21 -999.99    2.21    0.00000     0.00  LINEAR    6.52653E-01   -19.37    0.00000E+00     0.00
   87.00    62.00       2.21 -999.99    2.21    0.00000     0.00  LINEAR    6.52653E-01   -16.72    0.00000E+00     0.00
   87.00    63.00       2.21 -999.99    2.21    0.00000     0.00  LINEAR    6.52653E-01   -14.04    0.00000E+00     0.00
   87.00    64.00       2.21 -999.99    2.21    0.00000     0.00  LINEAR    6.52653E-01   -11.34    0.00000E+00     0.00
   87.00    65.00       2.21 -999.99    2.21    0.00000     0.00  LINEAR    6.52653E-01    -8.62    0.00000E+00     0.00
   87.00    66.00       2.21 -999.99    2.21    0.00000     0.00  LINEAR    6.52653E-01    -5.87    0.00000E+00     0.00
   87.00    67.00       2.21 -999.99    2.21    0.00000     0.00  LINEAR    6.52653E-01    -3.11    0.00000E+00     0.00
   87.00    68.00       2.21 -999.99    2.21    0.00000     0.00  LINEAR    6.52653E-01    -0.32    0.00000E+00     0.00
   87.00    69.00       2.21 -999.99    2.21    0.00000     0.00  LINEAR    6.52653E-01     2.49    0.00000E+00     0.00
   87.00    70.00       2.21 -999.99    2.21    0.00000     0.00  LINEAR    6.52653E-01     5.32    0.00000E+00     0.00
   87.00    71.00       2.21 -999.99    2.21    0.00000     0.00  LINEAR    6.52653E-01     8.16    0.00000E+00     0.00
   87.00    72.00       2.21 -999.99    2.21    0.00000     0.00  LINEAR    6.52653E-01    11.02    0.00000E+00     0.00
   87.00    73.00       2.21 -999.99    2.21    0.00000     0.00  LINEAR    6.52653E-01    13.90    0.00000E+00     0.00
   87.00    74.00       2.21 -999.99    2.21    0.00000     0.00  LINEAR    6.52653E-01    16.80    0.00000E+00     0.00
   87.00    75.00       2.21 -999.99    2.21    0.00000     0.00  LINEAR    6.52653E-01    19.70    0.00000E+00     0.00
   87.00    76.00       2.21 -999.99    2.21    0.00000     0.00  LINEAR    6.52653E-01    22.63    0.00000E+00     0.00
   87.00    77.00       2.21 -999.99    2.21    0.00000     0.00  LINEAR    6.52653E-01    25.56    0.00000E+00     0.00
   87.00    78.00       2.21 -999.99    2.21    0.00000     0.00  LINEAR    6.52653E-01    28.51    0.00000E+00     0.00
   87.00    79.00       2.21 -999.99    2.21    0.00000     0.00  LINEAR    6.52653E-01    31.46    0.00000E+00     0.00
   87.00    80.00       2.21 -999.99    2.21    0.00000     0.00  LINEAR    6.52653E-01    34.43    0.00000E+00     0.00
   87.00    81.00       2.21 -999.99    2.21    0.00000     0.00  LINEAR    6.52653E-01    37.41    0.00000E+00     0.00
   87.00    82.00       2.21 -999.99    2.21    0.00000     0.00  LINEAR    6.52653E-01    40.39    0.00000E+00     0.00
   87.00    83.00       2.21 -999.99    2.21    0.00000     0.00  LINEAR    6.52653E-01    43.38    0.00000E+00     0.00
   87.00    84.00       2.21 -999.99    2.21    0.00000     0.00  LINEAR    6.52653E-01    46.38    0.00000E+00     0.00
   87.00    85.00       2.21 -999.99    2.21    0.00000     0.00  LINEAR    6.52653E-01    49.39    0.00000E+00     0.00
   87.00    86.00       2.21 -999.99    2.21    0.00000     0.00  LINEAR    6.52653E-01    52.40    0.00000E+00     0.00
   87.00    87.00       2.21 -999.99    2.21    0.00000     0.00  LINEAR    6.52653E-01    55.41    0.00000E+00     0.00
   87.00    88.00       2.21 -999.99    2.21    0.00000     0.00  LINEAR    6.52653E-01    58.42    0.00000E+00     0.00
   87.00    89.00       2.21 -999.99    2.21    0.00000     0.00  LINEAR    6.52653E-01    61.44    0.00000E+00     0.00
   87.00    90.00       2.21 -999.99    2.21    0.00000     0.00  LINEAR    6.52653E-01    64.46    0.00000E+00     0.00
   87.00    91.00       2.21 -999.99    2.21    0.00000     0.00  LINEAR    6.52653E-01    67.48    0.00000E+00     0.00
   87.00    92.00       2.21 -999.99    2.21    0.00000     0.00  LINEAR    6.52653E-01    70.49    0.00000E+00     0.00
   87.00    93.00       2.21 -999.99    2.21    0.00000     0.00  LINEAR    6.52653E-01    73.51    0.00000E+00     0.00
   87.00    94.00       2.21 -999.99    2.21    0.00000     0.00  LINEAR    6.52653E-01    76.52    0.00000E+00     0.00
   87.00    95.00       2.21 -999.99    2.21    0.00000     0.00  LINEAR    6.52653E-01    79.53    0.00000E+00     0.00
   87.00    96.00       2.21 -999.99    2.21    0.00000     0.00  LINEAR    6.52653E-01    82.53    0.00000E+00     0.00
   87.00    97.00       2.21 -999.99    2.21    0.00000     0.00  LINEAR    6.52653E-01    85.53    0.00000E+00     0.00
   87.00    98.00       2.21 -999.99    2.21    0.00000     0.00  LINEAR    6.52653E-01    88.52    0.00000E+00     0.00
   87.00    99.00       2.21 -999.99    2.21    0.00000     0.00  LINEAR    6.52653E-01    91.51    0.00000E+00     0.00
   87.00   100.00       2.21 -999.99    2.21    0.00000     0.00  LINEAR    6.52653E-01    94.49    0.00000E+00     0.00
   87.00   101.00       2.21 -999.99    2.21    0.00000     0.00  LINEAR    6.52653E-01    97.45    0.00000E+00     0.00
   87.00   102.00       2.21 -999.99    2.21    0.00000     0.00  LINEAR    6.52653E-01   100.41    0.00000E+00     0.00
   87.00   103.00       2.21 -999.99    2.21    0.00000     0.00  LINEAR    6.52653E-01   103.36    0.00000E+00     0.00
   87.00   104.00       2.21 -999.99    2.21    0.00000     0.00  LINEAR    6.52653E-01   106.29    0.00000E+00     0.00
   87.00   105.00       2.21 -999.99    2.21    0.00000     0.00  LINEAR    6.52653E-01   109.21    0.00000E+00     0.00
   87.00   106.00       2.21 -999.99    2.21    0.00000     0.00  LINEAR    6.52653E-01   112.12    0.00000E+00     0.00
   87.00   107.00       2.21 -999.99    2.21    0.00000     0.00  LINEAR    6.52653E-01   115.01    0.00000E+00     0.00
   87.00   108.00       2.21 -999.99    2.21    0.00000     0.00  LINEAR    6.52653E-01   117.89    0.00000E+00     0.00
   87.00   109.00       2.21 -999.99    2.21    0.00000     0.00  LINEAR    6.52653E-01   120.75    0.00000E+00     0.00
   87.00   110.00       2.21 -999.99    2.21    0.00000     0.00  LINEAR    6.52653E-01   123.60    0.00000E+00     0.00
   87.00   111.00       2.21 -999.99    2.21    0.00000     0.00  LINEAR    6.52653E-01   126.43    0.00000E+00     0.00
   87.00   112.00       2.21 -999.99    2.21    0.00000     0.00  LINEAR    6.52653E-01   129.23    0.00000E+00     0.00
   87.00   113.00       2.21 -999.99    2.21    0.00000     0.00  LINEAR    6.52653E-01   132.02    0.00000E+00     0.00
   87.00   114.00       2.21 -999.99    2.21    0.00000     0.00  LINEAR    6.52653E-01   134.79    0.00000E+00     0.00
   87.00   115.00       2.21 -999.99    2.21    0.00000     0.00  LINEAR    6.52653E-01   137.54    0.00000E+00     0.00
   87.00   116.00       2.21 -999.99    2.21    0.00000     0.00  LINEAR    6.52653E-01   140.26    0.00000E+00     0.00
   87.00   117.00       2.21 -999.99    2.21    0.00000     0.00  LINEAR    6.52653E-01   142.96    0.00000E+00     0.00
   87.00   118.00       2.21 -999.99    2.21    0.00000     0.00  LINEAR    6.52653E-01   145.64    0.00000E+00     0.00
   87.00   119.00       2.21 -999.99    2.21    0.00000     0.00  LINEAR    6.52653E-01   148.29    0.00000E+00     0.00
   87.00   120.00       2.21 -999.99    2.21    0.00000     0.00  LINEAR    6.52653E-01   150.92    0.00000E+00     0.00
   87.00   121.00       2.21 -999.99    2.21    0.00000     0.00  LINEAR    6.52653E-01   153.52    0.00000E+00     0.00
   87.00   122.00       2.21 -999.99    2.21    0.00000     0.00  LINEAR    6.52653E-01   156.09    0.00000E+00     0.00
   87.00   123.00       2.21 -999.99    2.21    0.00000     0.00  LINEAR    6.52653E-01   158.64    0.00000E+00     0.00
   87.00   124.00       2.21 -999.99    2.21    0.00000     0.00  LINEAR    6.52653E-01   161.15    0.00000E+00     0.00
   87.00   125.00       2.21 -999.99    2.21    0.00000     0.00  LINEAR    6.52653E-01   163.64    0.00000E+00     0.00
   87.00   126.00       2.21 -999.99    2.21    0.00000     0.00  LINEAR    6.52653E-01   166.10    0.00000E+00     0.00
   87.00   127.00       2.21 -999.99    2.21    0.00000     0.00  LINEAR    6.52653E-01   168.52    0.00000E+00     0.00
   87.00   128.00       2.21 -999.99    2.21    0.00000     0.00  LINEAR    6.52653E-01   170.92    0.00000E+00     0.00
   87.00   129.00       2.21 -999.99    2.21    0.00000     0.00  LINEAR    6.52653E-01   173.28    0.00000E+00     0.00
   87.00   130.00       2.21 -999.99    2.21    0.00000     0.00  LINEAR    6.52653E-01   175.61    0.00000E+00     0.00
   87.00   131.00       2.21 -999.99    2.21    0.00000     0.00  LINEAR    6.52653E-01   177.90    0.00000E+00     0.00
   87.00   132.00       2.21 -999.99    2.21    0.00000     0.00  LINEAR    6.52653E-01  -179.84    0.00000E+00     0.00
   87.00   133.00       2.21 -999.99    2.21    0.00000     0.00  LINEAR    6.52653E-01  -177.61    0.00000E+00     0.00
   87.00   134.00       2.21 -999.99    2.21    0.00000     0.00  LINEAR    6.52653E-01  -175.42    0.00000E+00     0.00
   87.00   135.00       2.21 -999.99    2.21    0.00000     0.00  LINEAR    6.52653E-01  -173.27    0.00000E+00     0.00
   87.00   136.00       2.21 -999.99    2.21    0.00000     0.00  LINEAR    6.52653E-01  -171.15    0.00000E+00     0.00
   87.00   137.00       2.21 -999.99    2.21    0.00000     0.00  LINEAR    6.52653E-01  -169.08    0.00000E+00     0.00
   87.00   138.00       2.21 -999.99    2.21    0.00000     0.00  LINEAR    6.52653E-01  -167.04    0.00000E+00     0.00
   87.00   139.00       2.21 -999.99    2.21    0.00000     0.00  LINEAR    6.52653E-01  -165.04    0.00000E+00     0.00
   87.00   140.00       2.21 -999.99    2.21    0.00000     0.00  LINEAR    6.52653E-01  -163.08    0.00000E+00     0.00
   87.00   141.00       2.21 -999.99    2.21    0.00000     0.00  LINEAR    6.52653E-01  -161.16    0.00000E+00     0.00
   87.00   142.00       2.21 -999.99    2.21    0.00000     0.00  LINEAR    6.52653E-01  -159.28    0.00000E+00     0.00
   87.00   143.00       2.21 -999.99    2.21    0.00000     0.00  LINEAR    6.52653E-01  -157.44    0.00000E+00     0.00
   87.00   144.00       2.21 -999.99    2.21    0.00000     0.00  LINEAR    6.52653E-01  -155.65    0.00000E+00     0.00
   87.00   145.00       2.21 -999.99    2.21    0.00000     0.00  LINEAR    6.52653E-01  -153.90    0.00000E+00     0.00
   87.00   146.00       2.21 -999.99    2.21    0.00000     0.00  LINEAR    6.52653E-01  -152.19    0.00000E+00     0.00
   87.00   147.00       2.21 -999.99    2.21    0.00000     0.00  LINEAR    6.52653E-01  -150.52    0.00000E+00     0.00
   87.00   148.00       2.21 -999.99    2.21    0.00000     0.00  LINEAR    6.52653E-01  -148.90    0.00000E+00     0.00
   87.00   149.00       2.21 -999.99    2.21    0.00000     0.00  LINEAR    6.52653E-01  -147.32    0.00000E+00     0.00
   87.00   150.00       2.21 -999.99    2.21    0.00000     0.00  LINEAR    6.52653E-01  -145.79    0.00000E+00     0.00
   87.00   151.00       2.21 -999.99    2.21    0.00000     0.00  LINEAR    6.52653E-01  -144.30    0.00000E+00     0.00
   87.00   152.00       2.21 -999.99    2.21    0.00000     0.00  LINEAR    6.52653E-01  -142.86    0.00000E+00     0.00
   87.00   153.00       2.21 -999.99    2.21    0.00000     0.00  LINEAR    6.52653E-01  -141.47    0.00000E+00     0.00
   87.00   154.00       2.21 -999.99    2.21    0.00000     0.00  LINEAR    6.52653E-01  -140.12    0.00000E+00     0.00
   87.00   155.00       2.21 -999.99    2.21    0.00000     0.00  LINEAR    6.52653E-01  -138.82    0.00000E+00     0.00
   87.00   156.00       2.21 -999.99    2.21    0.00000     0.00  LINEAR    6.52653E-01  -137.57    0.00000E+00     0.00
   87.00   157.00       2.21 -999.99    2.21    0.00000     0.00  LINEAR    6.52653E-01  -136.37    0.00000E+00     0.00
   87.00   158.00       2.21 -999.99    2.21    0.00000     0.00  LINEAR    6.52653E-01  -135.21    0.00000E+00     0.00
   87.00   159.00       2.21 -999.99    2.21    0.00000     0.00  LINEAR    6.52653E-01  -134.11    0.00000E+00     0.00
   87.00   160.00       2.21 -999.99    2.21    0.00000     0.00  LINEAR    6.52653E-01  -133.05    0.00000E+00     0.00
   87.00   161.00       2.21 -999.99    2.21    0.00000     0.00  LINEAR    6.52653E-01  -132.04    0.00000E+00     0.00
   87.00   162.00       2.21 -999.99    2.21    0.00000     0.00  LINEAR    6.52653E-01  -131.09    0.00000E+00     0.00
   87.00   163.00       2.21 -999.99    2.21    0.00000     0.00  LINEAR    6.52653E-01  -130.18    0.00000E+00     0.00
   87.00   164.00       2.21 -999.99    2.21    0.00000     0.00  LINEAR    6.52653E-01  -129.32    0.00000E+00     0.00
   87.00   165.00       2.21 -999.99    2.21    0.00000     0.00  LINEAR    6.52653E-01  -128.52    0.00000E+00     0.00
   87.00   166.00       2.21 -999.99    2.21    0.00000     0.00  LINEAR    6.52653E-01  -127.76    0.00000E+00     0.00
   87.00   167.00       2.21 -999.99    2.21    0.00000     0.00  LINEAR    6.52653E-01  -127.06    0.00000E+00     0.00
   87.00   168.00       2.21 -999.99    2.21    0.00000     0.00  LINEAR    6.52653E-01  -126.40    0.00000E+00     0.00
   87.00   169.00       2.21 -999.99    2.21    0.00000     0.00  LINEAR    6.52653E-01  -125.80    0.00000E+00     0.00
   87.00   170.00       2.21 -999.99    2.21    0.00000     0.00  LINEAR    6.52653E-01  -125.25    0.00000E+00     0.00
   87.00   171.00       2.21 -999.99    2.21    0.00000     0.00  LINEAR    6.52653E-01  -124.75    0.00000E+00     0.00
   87.00   172.00       2.21 -999.99    2.21    0.00000     0.00  LINEAR    6.52653E-01  -124.31    0.00000E+00     0.00
   87.00   173.00       2.21 -999.99    2.21    0.00000     0.00  LINEAR    6.52653E-01  -123.91    0.00000E+00     0.00
   87.00   174.00       2.21 -999.99    2.21    0.00000     0.00  LINEAR    6.52653E-01  -123.57    0.00000E+00     0.00
   87.00   175.00       2.21 -999.99    2.21    0.00000     0.00  LINEAR    6.52653E-01  -123.28    0.00000E+00     0.00
   87.00   176.00       2.21 -999.99    2.21    0.00000     0.00  LINEAR    6.52653E-01  -123.04    0.00000E+00     0.00
   87.00   177.00       2.21 -999.99    2.21    0.00000     0.00  LINEAR    6.52653E-01  -122.86    0.00000E+00     0.00
   87.00   178.00       2.21 -999.99    2.21    0.00000     0.00  LINEAR    6.52653E-01  -122.73    0.00000E+00     0.00
   87.00   179.00       2.21 -999.99    2.21    0.00000     0.00  LINEAR    6.52653E-01  -122.65    0.00000E+00     0.00
   87.00   180.00       2.21 -999.99    2.21    0.00000     0.00  LINEAR    6.52653E-01  -122.62    0.00000E+00     0.00
   87.00   181.00       2.21 -999.99    2.21    0.00000     0.00  LINEAR    6.52653E-01  -122.65    0.00000E+00     0.00
   87.00   182.00       2.21 -999.99    2.21    0.00000     0.00  LINEAR    6.52653E-01  -122.73    0.00000E+00     0.00
   87.00   183.00       2.21 -999.99    2.21    0.00000     0.00  LINEAR    6.52653E-01  -122.86    0.00000E+00     0.00
   87.00   184.00       2.21 -999.99    2.21    0.00000     0.00  LINEAR    6.52653E-01  -123.04    0.00000E+00     0.00
   87.00   185.00       2.21 -999.99    2.21    0.00000     0.00  LINEAR    6.52653E-01  -123.28    0.00000E+00     0.00
   87.00   186.00       2.21 -999.99    2.21    0.00000     0.00  LINEAR    6.52653E-01  -123.57    0.00000E+00     0.00
   87.00   187.00       2.21 -999.99    2.21    0.00000     0.00  LINEAR    6.52653E-01  -123.91    0.00000E+00     0.00
   87.00   188.00       2.21 -999.99    2.21    0.00000     0.00  LINEAR    6.52653E-01  -124.31    0.00000E+00     0.00
   87.00   189.00       2.21 -999.99    2.21    0.00000     0.00  LINEAR    6.52653E-01  -124.75    0.00000E+00     0.00
   87.00   190.00       2.21 -999.99    2.21    0.00000     0.00  LINEAR    6.52653E-01  -125.25    0.00000E+00     0.00
   87.00   191.00       2.21 -999.99    2.21    0.00000     0.00  LINEAR    6.52653E-01  -125.80    0.00000E+00     0.00
   87.00   192.00       2.21 -999.99    2.21    0.00000     0.00  LINEAR    6.52653E-01  -126.40    0.00000E+00     0.00
   87.00   193.00       2.21 -999.99    2.21    0.00000     0.00  LINEAR    6.52653E-01  -127.06    0.00000E+00     0.00
   87.00   194.00       2.21 -999.99    2.21    0.00000     0.00  LINEAR    6.52653E-01  -127.76    0.00000E+00     0.00
   87.00   195.00       2.21 -999.99    2.21    0.00000     0.00  LINEAR    6.52653E-01  -128.52    0.00000E+00     0.00
   87.00   196.00       2.21 -999.99    2.21    0.00000     0.00  LINEAR    6.52653E-01  -129.32    0.00000E+00     0.00
   87.00   197.00       2.21 -999.99    2.21    0.00000     0.00  LINEAR    6.52653E-01  -130.18    0.00000E+00     0.00
   87.00   198.00       2.21 -999.99    2.21    0.00000     0.00  LINEAR    6.52653E-01  -131.09    0.00000E+00     0.00
   87.00   199.00       2.21 -999.99    2.21    0.00000     0.00  LINEAR    6.52653E-01  -132.04    0.00000E+00     0.00
   87.00   200.00       2.21 -999.99    2.21    0.00000     0.00  LINEAR    6.52653E-01  -133.05    0.00000E+00     0.00
   87.00   201.00       2.21 -999.99    2.21    0.00000     0.00  LINEAR    6.52653E-01  -134.11    0.00000E+00     0.00
   87.00   202.00       2.21 -999.99    2.21    0.00000     0.00  LINEAR    6.52653E-01  -135.21    0.00000E+00     0.00
   87.00   203.00       2.21 -999.99    2.21    0.00000     0.00  LINEAR    6.52653E-01  -136.37    0.00000E+00     0.00
   87.00   204.00       2.21 -999.99    2.21    0.00000     0.00  LINEAR    6.52653E-01  -137.57    0.00000E+00     0.00
   87.00   205.00       2.21 -999.99    2.21    0.00000     0.00  LINEAR    6.52653E-01  -138.82    0.00000E+00     0.00
   87.00   206.00       2.21 -999.99    2.21    0.00000     0.00  LINEAR    6.52653E-01  -140.12    0.00000E+00     0.00
   87.00   207.00       2.21 -999.99    2.21    0.00000     0.00  LINEAR    6.52653E-01  -141.47    0.00000E+00     0.00
   87.00   208.00       2.21 -999.99    2.21    0.00000     0.00  LINEAR    6.52653E-01  -142.86    0.00000E+00     0.00
   87.00   209.00       2.21 -999.99    2.21    0.00000     0.00  LINEAR    6.52653E-01  -144.30    0.00000E+00     0.00
   87.00   210.00       2.21 -999.99    2.21    0.00000     0.00  LINEAR    6.52653E-01  -145.79    0.00000E+00     0.00
   87.00   211.00       2.21 -999.99    2.21    0.00000     0.00  LINEAR    6.52653E-01  -147.32    0.00000E+00     0.00
   87.00   212.00       2.21 -999.99    2.21    0.00000     0.00  LINEAR    6.52653E-01  -148.90    0.00000E+00     0.00
   87.00   213.00       2.21 -999.99    2.21    0.00000     0.00  LINEAR    6.52653E-01  -150.52    0.00000E+00     0.00
   87.00   214.00       2.21 -999.99    2.21    0.00000     0.00  LINEAR    6.52653E-01  -152.19    0.00000E+00     0.00
   87.00   215.00       2.21 -999.99    2.21    0.00000     0.00  LINEAR    6.52653E-01  -153.90    0.00000E+00     0.00
   87.00   216.00       2.21 -999.99    2.21    0.00000     0.00  LINEAR    6.52653E-01  -155.65    0.00000E+00     0.00
   87.00   217.00       2.21 -999.99    2.21    0.00000     0.00  LINEAR    6.52653E-01  -157.44    0.00000E+00     0.00
   87.00   218.00       2.21 -999.99    2.21    0.00000     0.00  LINEAR    6.52653E-01  -159.28    0.00000E+00     0.00
   87.00   219.00       2.21 -999.99    2.21    0.00000     0.00  LINEAR    6.52653E-01  -161.16    0.00000E+00     0.00
   87.00   220.00       2.21 -999.99    2.21    0.00000     0.00  LINEAR    6.52653E-01  -163.08    0.00000E+00     0.00
   87.00   221.00       2.21 -999.99    2.21    0.00000     0.00  LINEAR    6.52653E-01  -165.04    0.00000E+00     0.00
   87.00   222.00       2.21 -999.99    2.21    0.00000     0.00  LINEAR    6.52653E-01  -167.04    0.00000E+00     0.00
   87.00   223.00       2.21 -999.99    2.21    0.00000     0.00  LINEAR    6.52653E-01  -169.08    0.00000E+00     0.00
   87.00   224.00       2.21 -999.99    2.21    0.00000     0.00  LINEAR    6.52653E-01  -171.15    0.00000E+00     0.00
   87.00   225.00       2.21 -999.99    2.21    0.00000     0.00  LINEAR    6.52653E-01  -173.27    0.00000E+00     0.00
   87.00   226.00       2.21 -999.99    2.21    0.00000     0.00  LINEAR    6.52653E-01  -175.42    0.00000E+00     0.00
   87.00   227.00       2.21 -999.99    2.21    0.00000     0.00  LINEAR    6.52653E-01  -177.61    0.00000E+00     0.00
   87.00   228.00       2.21 -999.99    2.21    0.00000     0.00  LINEAR    6.52653E-01  -179.84    0.00000E+00     0.00
   87.00   229.00       2.21 -999.99    2.21    0.00000     0.00  LINEAR    6.52653E-01   177.90    0.00000E+00     0.00
   87.00   230.00       2.21 -999.99    2.21    0.00000     0.00  LINEAR    6.52653E-01   175.61    0.00000E+00     0.00
   87.00   231.00       2.21 -999.99    2.21    0.00000     0.00  LINEAR    6.52653E-01   173.28    0.00000E+00     0.00
   87.00   232.00       2.21 -999.99    2.21    0.00000     0.00  LINEAR    6.52653E-01   170.92    0.00000E+00     0.00
   87.00   233.00       2.21 -999.99    2.21    0.00000     0.00  LINEAR    6.52653E-01   168.52    0.00000E+00     0.00
   87.00   234.00       2.21 -999.99    2.21    0.00000     0.00  LINEAR    6.52653E-01   166.10    0.00000E+00     0.00
   87.00   235.00       2.21 -999.99    2.21    0.00000     0.00  LINEAR    6.52653E-01   163.64    0.00000E+00     0.00
   87.00   236.00       2.21 -999.99    2.21    0.00000     0.00  LINEAR    6.52653E-01   161.15    0.00000E+00     0.00
   87.00   237.00       2.21 -999.99    2.21    0.00000     0.00  LINEAR    6.52653E-01   158.64    0.00000E+00     0.00
   87.00   238.00       2.21 -999.99    2.21    0.00000     0.00  LINEAR    6.52653E-01   156.09    0.00000E+00     0.00
   87.00   239.00       2.21 -999.99    2.21    0.00000     0.00  LINEAR    6.52653E-01   153.52    0.00000E+00     0.00
   87.00   240.00       2.21 -999.99    2.21    0.00000     0.00  LINEAR    6.52653E-01   150.92    0.00000E+00     0.00
   87.00   241.00       2.21 -999.99    2.21    0.00000     0.00  LINEAR    6.52653E-01   148.29    0.00000E+00     0.00
   87.00   242.00       2.21 -999.99    2.21    0.00000     0.00  LINEAR    6.52653E-01   145.64    0.00000E+00     0.00
   87.00   243.00       2.21 -999.99    2.21    0.00000     0.00  LINEAR    6.52653E-01   142.96    0.00000E+00     0.00
   87.00   244.00       2.21 -999.99    2.21    0.00000     0.00  LINEAR    6.52653E-01   140.26    0.00000E+00     0.00
   87.00   245.00       2.21 -999.99    2.21    0.00000     0.00  LINEAR    6.52653E-01   137.54    0.00000E+00     0.00
   87.00   246.00       2.21 -999.99    2.21    0.00000     0.00  LINEAR    6.52653E-01   134.79    0.00000E+00     0.00
   87.00   247.00       2.21 -999.99    2.21    0.00000     0.00  LINEAR    6.52653E-01   132.02    0.00000E+00     0.00
   87.00   248.00       2.21 -999.99    2.21    0.00000     0.00  LINEAR    6.52653E-01   129.23    0.00000E+00     0.00
   87.00   249.00       2.21 -999.99    2.21    0.00000     0.00  LINEAR    6.52653E-01   126.43    0.00000E+00     0.00
   87.00   250.00       2.21 -999.99    2.21    0.00000     0.00  LINEAR    6.52653E-01   123.60    0.00000E+00     0.00
   87.00   251.00       2.21 -999.99    2.21    0.00000     0.00  LINEAR    6.52653E-01   120.75    0.00000E+00     0.00
   87.00   252.00       2.21 -999.99    2.21    0.00000     0.00  LINEAR    6.52653E-01   117.89    0.00000E+00     0.00
   87.00   253.00       2.21 -999.99    2.21    0.00000     0.00  LINEAR    6.52653E-01   115.01    0.00000E+00     0.00
   87.00   254.00       2.21 -999.99    2.21    0.00000     0.00  LINEAR    6.52653E-01   112.12    0.00000E+00     0.00
   87.00   255.00       2.21 -999.99    2.21    0.00000     0.00  LINEAR    6.52653E-01   109.21    0.00000E+00     0.00
   87.00   256.00       2.21 -999.99    2.21    0.00000     0.00  LINEAR    6.52653E-01   106.29    0.00000E+00     0.00
   87.00   257.00       2.21 -999.99    2.21    0.00000     0.00  LINEAR    6.52653E-01   103.36    0.00000E+00     0.00
   87.00   258.00       2.21 -999.99    2.21    0.00000     0.00  LINEAR    6.52653E-01   100.41    0.00000E+00     0.00
   87.00   259.00       2.21 -999.99    2.21    0.00000     0.00  LINEAR    6.52653E-01    97.45    0.00000E+00     0.00
   87.00   260.00       2.21 -999.99    2.21    0.00000     0.00  LINEAR    6.52653E-01    94.49    0.00000E+00     0.00
   87.00   261.00       2.21 -999.99    2.21    0.00000     0.00  LINEAR    6.52653E-01    91.51    0.00000E+00     0.00
   87.00   262.00       2.21 -999.99    2.21    0.00000     0.00  LINEAR    6.52653E-01    88.52    0.00000E+00     0.00
   87.00   263.00       2.21 -999.99    2.21    0.00000     0.00  LINEAR    6.52653E-01    85.53    0.00000E+00     0.00
   87.00   264.00       2.21 -999.99    2.21    0.00000     0.00  LINEAR    6.52653E-01    82.53    0.00000E+00     0.00
   87.00   265.00       2.21 -999.99    2.21    0.00000     0.00  LINEAR    6.52653E-01    79.53    0.00000E+00     0.00
   87.00   266.00       2.21 -999.99    2.21    0.00000     0.00  LINEAR    6.52653E-01    76.52    0.00000E+00     0.00
   87.00   267.00       2.21 -999.99    2.21    0.00000     0.00  LINEAR    6.52653E-01    73.51    0.00000E+00     0.00
   87.00   268.00       2.21 -999.99    2.21    0.00000     0.00  LINEAR    6.52653E-01    70.49    0.00000E+00     0.00
   87.00   269.00       2.21 -999.99    2.21    0.00000     0.00  LINEAR    6.52653E-01    67.48    0.00000E+00     0.00
   87.00   270.00       2.21 -999.99    2.21    0.00000     0.00  LINEAR    6.52653E-01    64.46    0.00000E+00     0.00
   87.00   271.00       2.21 -999.99    2.21    0.00000     0.00  LINEAR    6.52653E-01    61.44    0.00000E+00     0.00
   87.00   272.00       2.21 -999.99    2.21    0.00000     0.00  LINEAR    6.52653E-01    58.42    0.00000E+00     0.00
   87.00   273.00       2.21 -999.99    2.21    0.00000     0.00  LINEAR    6.52653E-01    55.41    0.00000E+00     0.00
   87.00   274.00       2.21 -999.99    2.21    0.00000     0.00  LINEAR    6.52653E-01    52.40    0.00000E+00     0.00
   87.00   275.00       2.21 -999.99    2.21    0.00000     0.00  LINEAR    6.52653E-01    49.39    0.00000E+00     0.00
   87.00   276.00       2.21 -999.99    2.21    0.00000     0.00  LINEAR    6.52653E-01    46.38    0.00000E+00     0.00
   87.00   277.00       2.21 -999.99    2.21    0.00000     0.00  LINEAR    6.52653E-01    43.38    0.00000E+00     0.00
   87.00   278.00       2.21 -999.99    2.21    0.00000     0.00  LINEAR    6.52653E-01    40.39    0.00000E+00     0.00
   87.00   279.00       2.21 -999.99    2.21    0.00000     0.00  LINEAR    6.52653E-01    37.41    0.00000E+00     0.00
   87.00   280.00       2.21 -999.99    2.21    0.00000     0.00  LINEAR    6.52653E-01    34.43    0.00000E+00     0.00
   87.00   281.00       2.21 -999.99    2.21    0.00000     0.00  LINEAR    6.52653E-01    31.46    0.00000E+00     0.00
   87.00   282.00       2.21 -999.99    2.21    0.00000     0.00  LINEAR    6.52653E-01    28.51    0.00000E+00     0.00
   87.00   283.00       2.21 -999.99    2.21    0.00000     0.00  LINEAR    6.52653E-01    25.56    0.00000E+00     0.00
   87.00   284.00       2.21 -999.99    2.21    0.00000     0.00  LINEAR    6.52653E-01    22.63    0.00000E+00     0.00
   87.00   285.00       2.21 -999.99    2.21    0.00000     0.00  LINEAR    6.52653E-01    19.70    0.00000E+00     0.00
   87.00   286.00       2.21 -999.99    2.21    0.00000     0.00  LINEAR    6.52653E-01    16.80    0.00000E+00     0.00
   87.00   287.00       2.21 -999.99    2.21    0.00000     0.00  LINEAR    6.52653E-01    13.90    0.00000E+00     0.00
   87.00   288.00       2.21 -999.99    2.21    0.00000     0.00  LINEAR    6.52653E-01    11.02    0.00000E+00     0.00
   87.00   289.00       2.21 -999.99    2.21    0.00000     0.00  LINEAR    6.52653E-01     8.16    0.00000E+00     0.00
   87.00   290.00       2.21 -999.99    2.21    0.00000     0.00  LINEAR    6.52653E-01     5.32    0.00000E+00     0.00
   87.00   291.00       2.21 -999.99    2.21    0.00000     0.00  LINEAR    6.52653E-01     2.49    0.00000E+00     0.00
   87.00   292.00       2.21 -999.99    2.21    0.00000     0.00  LINEAR    6.52653E-01    -0.32    0.00000E+00     0.00
   87.00   293.00       2.21 -999.99    2.21    0.00000     0.00  LINEAR    6.52653E-01    -3.11    0.00000E+00     0.00
   87.00   294.00       2.21 -999.99    2.21    0.00000     0.00  LINEAR    6.52653E-01    -5.87    0.00000E+00     0.00
   87.00   295.00       2.21 -999.99    2.21    0.00000     0.00  LINEAR    6.52653E-01    -8.62    0.00000E+00     0.00
   87.00   296.00       2.21 -999.99    2.21    0.00000     0.00  LINEAR    6.52653E-01   -11.34    0.00000E+00     0.00
   87.00   297.00       2.21 -999.99    2.21    0.00000     0.00  LINEAR    6.52653E-01   -14.04    0.00000E+00     0.00
   87.00   298.00       2.21 -999.99    2.21    0.00000     0.00  LINEAR    6.52653E-01   -16.72    0.00000E+00     0.00
   87.00   299.00       2.21 -999.99    2.21    0.00000     0.00  LINEAR    6.52653E-01   -19.37    0.00000E+00     0.00
   87.00   300.00       2.21 -999.99    2.21    0.00000     0.00  LINEAR    6.52653E-01   -22.00    0.00000E+00     0.00
   87.00   301.00       2.21 -999.99    2.21    0.00000     0.00  LINEAR    6.52653E-01   -24.60    0.00000E+00     0.00
   87.00   302.00       2.21 -999.99    2.21    0.00000     0.00  LINEAR    6.52653E-01   -27.17    0.00000E+00     0.00
   87.00   303.00       2.21 -999.99    2.21    0.00000     0.00  LINEAR    6.52653E-01   -29.72    0.00000E+00     0.00
   87.00   304.00       2.21 -999.99    2.21    0.00000     0.00  LINEAR    6.52653E-01   -32.24    0.00000E+00     0.00
   87.00   305.00       2.21 -999.99    2.21    0.00000     0.00  LINEAR    6.52653E-01   -34.72    0.00000E+00     0.00
   87.00   306.00       2.21 -999.99    2.21    0.00000     0.00  LINEAR    6.52653E-01   -37.18    0.00000E+00     0.00
   87.00   307.00       2.21 -999.99    2.21    0.00000     0.00  LINEAR    6.52653E-01   -39.61    0.00000E+00     0.00
   87.00   308.00       2.21 -999.99    2.21    0.00000     0.00  LINEAR    6.52653E-01   -42.00    0.00000E+00     0.00
   87.00   309.00       2.21 -999.99    2.21    0.00000     0.00  LINEAR    6.52653E-01   -44.36    0.00000E+00     0.00
   87.00   310.00       2.21 -999.99    2.21    0.00000     0.00  LINEAR    6.52653E-01   -46.69    0.00000E+00     0.00
   87.00   311.00       2.21 -999.99    2.21    0.00000     0.00  LINEAR    6.52653E-01   -48.99    0.00000E+00     0.00
   87.00   312.00       2.21 -999.99    2.21    0.00000     0.00  LINEAR    6.52653E-01   -51.25    0.00000E+00     0.00
   87.00   313.00       2.21 -999.99    2.21    0.00000     0.00  LINEAR    6.52653E-01   -53.47    0.00000E+00     0.00
   87.00   314.00       2.21 -999.99    2.21    0.00000     0.00  LINEAR    6.52653E-01   -55.66    0.00000E+00     0.00
   87.00   315.00       2.21 -999.99    2.21    0.00000     0.00  LINEAR    6.52653E-01   -57.81    0.00000E+00     0.00
   87.00   316.00       2.21 -999.99    2.21    0.00000     0.00  LINEAR    6.52653E-01   -59.93    0.00000E+00     0.00
   87.00   317.00       2.21 -999.99    2.21    0.00000     0.00  LINEAR    6.52653E-01   -62.01    0.00000E+00     0.00
   87.00   318.00       2.21 -999.99    2.21    0.00000     0.00  LINEAR    6.52653E-01   -64.04    0.00000E+00     0.00
   87.00   319.00       2.21 -999.99    2.21    0.00000     0.00  LINEAR    6.52653E-01   -66.04    0.00000E+00     0.00
   87.00   320.00       2.21 -999.99    2.21    0.00000     0.00  LINEAR    6.52653E-01   -68.00    0.00000E+00     0.00
   87.00   321.00       2.21 -999.99    2.21    0.00000     0.00  LINEAR    6.52653E-01   -69.92    0.00000E+00     0.00
   87.00   322.00       2.21 -999.99    2.21    0.00000     0.00  LINEAR    6.52653E-01   -71.80    0.00000E+00     0.00
   87.00   323.00       2.21 -999.99    2.21    0.00000     0.00  LINEAR    6.52653E-01   -73.64    0.00000E+00     0.00
   87.00   324.00       2.21 -999.99    2.21    0.00000     0.00  LINEAR    6.52653E-01   -75.44    0.00000E+00     0.00
   87.00   325.00       2.21 -999.99    2.21    0.00000     0.00  LINEAR    6.52653E-01   -77.19    0.00000E+00     0.00
   87.00   326.00       2.21 -999.99    2.21    0.00000     0.00  LINEAR    6.52653E-01   -78.90    0.00000E+00     0.00
   87.00   327.00       2.21 -999.99    2.21    0.00000     0.00  LINEAR    6.52653E-01   -80.56    0.00000E+00     0.00
   87.00   328.00       2.21 -999.99    2.21    0.00000     0.00  LINEAR    6.52653E-01   -82.18    0.00000E+00     0.00
   87.00   329.00       2.21 -999.99    2.21    0.00000     0.00  LINEAR    6.52653E-01   -83.76    0.00000E+00     0.00
   87.00   330.00       2.21 -999.99    2.21    0.00000     0.00  LINEAR    6.52653E-01   -85.29    0.00000E+00     0.00
   87.00   331.00       2.21 -999.99    2.21    0.00000     0.00  LINEAR    6.52653E-01   -86.78    0.00000E+00     0.00
   87.00   332.00       2.21 -999.99    2.21    0.00000     0.00  LINEAR    6.52653E-01   -88.22    0.00000E+00     0.00
   87.00   333.00       2.21 -999.99    2.21    0.00000     0.00  LINEAR    6.52653E-01   -89.61    0.00000E+00     0.00
   87.00   334.00       2.21 -999.99    2.21    0.00000     0.00  LINEAR    6.52653E-01   -90.96    0.00000E+00     0.00
   87.00   335.00       2.21 -999.99    2.21    0.00000     0.00  LINEAR    6.52653E-01   -92.26    0.00000E+00     0.00
   87.00   336.00       2.21 -999.99    2.21    0.00000     0.00  LINEAR    6.52653E-01   -93.51    0.00000E+00     0.00
   87.00   337.00       2.21 -999.99    2.21    0.00000     0.00  LINEAR    6.52653E-01   -94.71    0.00000E+00     0.00
   87.00   338.00       2.21 -999.99    2.21    0.00000     0.00  LINEAR    6.52653E-01   -95.87    0.00000E+00     0.00
   87.00   339.00       2.21 -999.99    2.21    0.00000     0.00  LINEAR    6.52653E-01   -96.97    0.00000E+00     0.00
   87.00   340.00       2.21 -999.99    2.21    0.00000     0.00  LINEAR    6.52653E-01   -98.03    0.00000E+00     0.00
   87.00   341.00       2.21 -999.99    2.21    0.00000     0.00  LINEAR    6.52653E-01   -99.04    0.00000E+00     0.00
   87.00   342.00       2.21 -999.99    2.21    0.00000     0.00  LINEAR    6.52653E-01  -100.00    0.00000E+00     0.00
   87.00   343.00       2.21 -999.99    2.21    0.00000     0.00  LINEAR    6.52653E-01  -100.90    0.00000E+00     0.00
   87.00   344.00       2.21 -999.99    2.21    0.00000     0.00  LINEAR    6.52653E-01  -101.76    0.00000E+00     0.00
   87.00   345.00       2.21 -999.99    2.21    0.00000     0.00  LINEAR    6.52653E-01  -102.57    0.00000E+00     0.00
   87.00   346.00       2.21 -999.99    2.21    0.00000     0.00  LINEAR    6.52653E-01  -103.32    0.00000E+00     0.00
   87.00   347.00       2.21 -999.99    2.21    0.00000     0.00  LINEAR    6.52653E-01  -104.03    0.00000E+00     0.00
   87.00   348.00       2.21 -999.99    2.21    0.00000     0.00  LINEAR    6.52653E-01  -104.68    0.00000E+00     0.00
   87.00   349.00       2.21 -999.99    2.21    0.00000     0.00  LINEAR    6.52653E-01  -105.28    0.00000E+00     0.00
   87.00   350.00       2.21 -999.99    2.21    0.00000     0.00  LINEAR    6.52653E-01  -105.83    0.00000E+00     0.00
   87.00   351.00       2.21 -999.99    2.21    0.00000     0.00  LINEAR    6.52653E-01  -106.33    0.00000E+00     0.00
   87.00   352.00       2.21 -999.99    2.21    0.00000     0.00  LINEAR    6.52653E-01  -106.78    0.00000E+00     0.00
   87.00   353.00       2.21 -999.99    2.21    0.00000     0.00  LINEAR    6.52653E-01  -107.17    0.00000E+00     0.00
   87.00   354.00       2.21 -999.99    2.21    0.00000     0.00  LINEAR    6.52653E-01  -107.51    0.00000E+00     0.00
   87.00   355.00       2.21 -999.99    2.21    0.00000     0.00  LINEAR    6.52653E-01  -107.80    0.00000E+00     0.00
   87.00   356.00       2.21 -999.99    2.21    0.00000     0.00  LINEAR    6.52653E-01  -108.04    0.00000E+00     0.00
   87.00   357.00       2.21 -999.99    2.21    0.00000     0.00  LINEAR    6.52653E-01  -108.22    0.00000E+00     0.00
   87.00   358.00       2.21 -999.99    2.21    0.00000     0.00  LINEAR    6.52653E-01  -108.35    0.00000E+00     0.00
   87.00   359.00       2.21 -999.99    2.21    0.00000     0.00  LINEAR    6.52653E-01  -108.43    0.00000E+00     0.00






 ***** DATA CARD NO.  5   EN   0     1   360  1000  8.70000E+01  0.00000E+00  0.00000E+00  1.00000E+00  0.00000E+00  0.00000E+00

 RUN TIME =     0.016
